download/pglib-opf-master/api/pglib_opf_case6495_rte__api.m
%%%%%%%%%%%%%%%%%%%%%%%%%%%%%%%%%%%%%%%%%%%%%%%%%%%%%%%%%%%%%%%%%%%%%%%%%%%
%%%%                                                                  %%%%%
%%%%    IEEE PES Power Grid Library - Optimal Power Flow - v19.05     %%%%%
%%%%          (https://github.com/power-grid-lib/pglib-opf)           %%%%%
%%%%             Benchmark Group - Active Power Increase              %%%%%
%%%%                         08 - May - 2019                          %%%%%
%%%%                                                                  %%%%%
%%%%%%%%%%%%%%%%%%%%%%%%%%%%%%%%%%%%%%%%%%%%%%%%%%%%%%%%%%%%%%%%%%%%%%%%%%%
function mpc = pglib_opf_case6495_rte__api
mpc.version = '2';
mpc.baseMVA = 100.0;

%% bus data
%	bus_i	type	Pd	Qd	Gs	Bs	area	Vm	Va	baseKV	zone	Vmax	Vmin
mpc.bus = [
	1	 1	 0.0	 0.0	 0.0	 0.0	 1	    0.94444	    0.00000	 45.0	 1	    1.00000	    0.88889;
	2	 1	 0.0	 0.0	 0.0	 0.0	 1	    1.00000	    0.00000	 63.0	 1	    1.06349	    0.93651;
	3	 1	 15.20	 2.60	 0.0	 0.0	 1	    1.01588	    0.00000	 63.0	 1	    1.07937	    0.95238;
	4	 1	 57.10	 3.40	 0.0	 0.0	 1	    1.01111	    0.00000	 90.0	 1	    1.08889	    0.93333;
	5	 1	 11.00	 0.00	 0.0	 0.0	 1	    1.00794	    0.00000	 63.0	 1	    1.06349	    0.95238;
	6	 1	 15.09	 4.30	 0.0	 0.0	 1	    1.00000	    0.00000	 63.0	 1	    1.07937	    0.92063;
	7	 1	 1.39	 0.70	 0.0	 0.0	 1	    1.00000	    0.00000	 63.0	 1	    1.07937	    0.92063;
	8	 1	 28.55	 13.10	 0.0	 0.0	 1	    0.98889	    0.00000	 225.0	 1	    1.08889	    0.88889;
	9	 1	 14.90	 0.00	 0.0	 0.0	 1	    1.00000	    0.00000	 63.0	 1	    1.06349	    0.93651;
	10	 1	 0.0	 0.0	 0.0	 0.0	 1	    1.00000	    0.00000	 90.0	 1	    1.07778	    0.92222;
	11	 1	 30.70	 -2.00	 0.0	 0.0	 1	    1.00000	    0.00000	 90.0	 1	    1.07778	    0.92222;
	12	 1	 0.0	 0.0	 0.0	 0.0	 1	    1.01588	    0.00000	 63.0	 1	    1.07937	    0.95238;
	13	 1	 0.0	 0.0	 0.0	 0.0	 1	    1.07788	    0.00000	 380.0	 1	    1.10263	    1.05313;
	14	 1	 61.16	 13.40	 0.0	 30.4	 1	    1.02778	    0.00000	 90.0	 1	    1.07778	    0.97778;
	15	 1	 0.0	 0.0	 0.0	 0.0	 1	    1.00000	    0.00000	 63.0	 1	    1.07937	    0.92063;
	16	 1	 12.50	 -0.60	 0.0	 0.0	 1	    1.00000	    0.00000	 63.0	 1	    1.07937	    0.92063;
	17	 1	 12.65	 0.20	 0.0	 0.0	 1	    1.02222	    0.00000	 90.0	 1	    1.06667	    0.97778;
	18	 1	 0.0	 0.0	 0.0	 0.0	 1	    0.94444	    0.00000	 45.0	 1	    1.00000	    0.88889;
	19	 1	 0.0	 0.0	 0.0	 0.0	 1	    1.00000	    0.00000	 63.0	 1	    1.06349	    0.93651;
	20	 1	 3.90	 -18.20	 0.0	 0.0	 1	    0.94444	    0.00000	 45.0	 1	    1.00000	    0.88889;
	21	 1	 6.30	 -2.50	 0.0	 0.0	 1	    1.02222	    0.00000	 90.0	 1	    1.06667	    0.97778;
	22	 1	 20.08	 0.80	 0.0	 0.0	 1	    1.01588	    0.00000	 63.0	 1	    1.07937	    0.95238;
	23	 1	 28.32	 1.40	 0.0	 0.0	 1	    1.00000	    0.00000	 63.0	 1	    1.06349	    0.93651;
	24	 1	 16.70	 -1.30	 0.0	 0.0	 1	    1.03333	    0.00000	 90.0	 1	    1.11111	    0.95556;
	25	 1	 51.10	 -4.00	 0.0	 0.0	 1	    1.02222	    0.00000	 90.0	 1	    1.10000	    0.94444;
	26	 1	 37.60	 5.00	 0.0	 0.0	 1	    1.02222	    0.00000	 90.0	 1	    1.06667	    0.97778;
	27	 1	 0.0	 0.0	 0.0	 0.0	 1	    1.04444	    0.00000	 225.0	 1	    1.08444	    1.00444;
	28	 1	 0.00	 -0.20	 0.0	 0.0	 1	    1.01588	    0.00000	 63.0	 1	    1.07937	    0.95238;
	29	 1	 87.04	 9.30	 0.0	 0.0	 1	    1.01587	    0.00000	 63.0	 1	    1.06349	    0.96825;
	30	 1	 43.64	 3.30	 0.0	 0.0	 1	    1.01111	    0.00000	 90.0	 1	    1.08889	    0.93333;
	31	 1	 0.0	 0.0	 0.0	 0.0	 1	    1.00000	    0.00000	 63.0	 1	    1.06349	    0.93651;
	32	 1	 0.0	 0.0	 0.0	 0.0	 1	    1.00334	    0.00000	 150.0	 1	    1.10667	    0.90000;
	33	 1	 0.0	 0.0	 0.0	 0.0	 1	    1.01111	    0.00000	 225.0	 1	    1.08889	    0.93333;
	34	 1	 0.0	 0.0	 0.0	 0.0	 1	    1.01111	    0.00000	 225.0	 1	    1.08889	    0.93333;
	35	 1	 0.0	 0.0	 0.0	 0.0	 1	    1.07237	    0.00000	 380.0	 1	    1.10526	    1.03947;
	36	 1	 0.0	 0.0	 0.0	 0.0	 1	    1.07237	    0.00000	 380.0	 1	    1.10526	    1.03947;
	37	 1	 2.79	 4.70	 0.0	 0.0	 1	    1.00000	    0.00000	 63.0	 1	    1.07937	    0.92063;
	38	 1	 9.28	 3.00	 0.0	 0.0	 1	    1.01587	    0.00000	 63.0	 1	    1.09524	    0.93651;
	39	 1	 40.60	 -4.90	 0.0	 0.0	 1	    1.02778	    0.00000	 90.0	 1	    1.07778	    0.97778;
	40	 1	 40.27	 5.10	 0.0	 0.0	 1	    1.02778	    0.00000	 90.0	 1	    1.07778	    0.97778;
	41	 1	 0.0	 0.0	 0.0	 0.0	 1	    1.04798	    0.00000	 225.0	 1	    1.09152	    1.00444;
	42	 1	 0.0	 0.0	 0.0	 0.0	 1	    1.04036	    0.00000	 63.0	 1	    1.12834	    0.95238;
	43	 1	 3.83	 2.70	 0.0	 0.0	 1	    1.02778	    0.00000	 90.0	 1	    1.07778	    0.97778;
	44	 1	 17.64	 1.60	 0.0	 0.0	 1	    1.00794	    0.00000	 63.0	 1	    1.06349	    0.95238;
	45	 1	 4.41	 0.80	 0.0	 0.0	 1	    1.02222	    0.00000	 90.0	 1	    1.06667	    0.97778;
	46	 1	 0.0	 0.0	 0.0	 0.0	 1	    1.00000	    0.00000	 63.0	 1	    1.06349	    0.93651;
	47	 2	 0.0	 0.0	 0.0	 0.0	 1	    1.00000	    0.00000	 63.0	 1	    1.06349	    0.93651;
	48	 1	 44.80	 3.90	 0.0	 0.0	 1	    1.00000	    0.00000	 90.0	 1	    1.07778	    0.92222;
	49	 1	 9.90	 -2.60	 0.0	 0.0	 1	    1.00000	    0.00000	 63.0	 1	    1.06349	    0.93651;
	50	 1	 0.0	 0.0	 0.0	 0.0	 1	    1.00554	    0.00000	 63.0	 1	    1.07458	    0.93651;
	51	 1	 0.0	 0.0	 0.0	 0.0	 1	    1.01111	    0.00000	 225.0	 1	    1.08889	    0.93333;
	52	 1	 9.28	 3.50	 0.0	 0.0	 1	    1.02222	    0.00000	 90.0	 1	    1.06667	    0.97778;
	53	 1	 0.10	 -1.20	 0.0	 0.0	 1	    1.00000	    0.00000	 63.0	 1	    1.04762	    0.95238;
	54	 1	 -0.60	 1.20	 0.0	 0.0	 1	    1.02222	    0.00000	 90.0	 1	    1.06667	    0.97778;
	55	 1	 56.87	 11.30	 0.0	 0.0	 1	    1.04717	    0.00000	 225.0	 1	    1.08991	    1.00444;
	56	 1	 91.22	 22.50	 0.0	 0.0	 1	    1.04666	    0.00000	 225.0	 1	    1.08889	    1.00444;
	57	 2	 0.0	 0.0	 0.0	 0.0	 1	    1.00000	    0.00000	 63.0	 1	    1.07937	    0.92063;
	58	 1	 170.26	 32.50	 0.0	 0.0	 1	    1.04710	    0.00000	 225.0	 1	    1.08975	    1.00444;
	59	 1	 5.92	 0.40	 0.0	 0.0	 1	    1.01588	    0.00000	 63.0	 1	    1.07937	    0.95238;
	60	 1	 0.0	 0.0	 0.0	 0.0	 1	    1.01588	    0.00000	 63.0	 1	    1.07937	    0.95238;
	61	 1	 48.05	 11.60	 0.0	 0.0	 1	    1.01588	    0.00000	 63.0	 1	    1.07937	    0.95238;
	62	 1	 0.0	 0.0	 0.0	 0.0	 1	    1.01588	    0.00000	 63.0	 1	    1.07937	    0.95238;
	63	 1	 18.34	 2.00	 0.0	 0.0	 1	    1.01588	    0.00000	 63.0	 1	    1.07937	    0.95238;
	64	 1	 74.62	 5.40	 0.0	 0.0	 1	    0.98889	    0.00000	 225.0	 1	    1.08889	    0.88889;
	65	 1	 13.93	 2.90	 0.0	 0.0	 1	    1.01588	    0.00000	 63.0	 1	    1.07937	    0.95238;
	66	 1	 14.40	 -6.80	 0.0	 0.0	 1	    1.00000	    0.00000	 63.0	 1	    1.06349	    0.93651;
	67	 1	 1.00	 0.00	 0.0	 0.0	 1	    1.00000	    0.00000	 63.0	 1	    1.07937	    0.92063;
	68	 1	 56.52	 3.80	 0.0	 0.0	 1	    1.00000	    0.00000	 63.0	 1	    1.06349	    0.93651;
	69	 1	 17.30	 -1.60	 0.0	 0.0	 1	    1.00794	    0.00000	 63.0	 1	    1.06349	    0.95238;
	70	 1	 13.58	 3.50	 0.0	 0.0	 1	    1.01588	    0.00000	 63.0	 1	    1.07937	    0.95238;
	71	 1	 79.85	 17.20	 0.0	 0.0	 1	    1.00000	    0.00000	 63.0	 1	    1.04762	    0.95238;
	72	 1	 0.0	 0.0	 0.0	 0.0	 1	    1.04668	    0.00000	 225.0	 1	    1.08892	    1.00444;
	73	 1	 0.0	 0.0	 0.0	 0.0	 1	    1.04668	    0.00000	 225.0	 1	    1.08892	    1.00444;
	74	 1	 53.30	 -8.70	 0.0	 0.0	 1	    0.98889	    0.00000	 225.0	 1	    1.08889	    0.88889;
	75	 1	 29.01	 1.60	 0.0	 0.0	 1	    1.02222	    0.00000	 90.0	 1	    1.06667	    0.97778;
	76	 1	 10.45	 0.70	 0.0	 0.0	 1	    1.03778	    0.00000	 225.0	 1	    1.08889	    0.98667;
	77	 1	 40.80	 -1.50	 0.0	 0.0	 1	    1.00000	    0.00000	 63.0	 1	    1.06349	    0.93651;
	78	 1	 0.0	 0.0	 0.0	 0.0	 1	    1.00000	    0.00000	 63.0	 1	    1.07937	    0.92063;
	79	 1	 0.0	 0.0	 0.0	 0.0	 1	    1.00000	    0.00000	 63.0	 1	    1.04762	    0.95238;
	80	 1	 40.16	 10.40	 0.0	 0.0	 1	    1.04666	    0.00000	 225.0	 1	    1.08889	    1.00444;
	81	 1	 40.16	 9.00	 0.0	 0.0	 1	    1.04666	    0.00000	 225.0	 1	    1.08889	    1.00444;
	82	 1	 11.60	 -0.20	 0.0	 0.0	 1	    1.00000	    0.00000	 63.0	 1	    1.06349	    0.93651;
	83	 1	 107.24	 64.50	 0.0	 0.0	 1	    1.04666	    0.00000	 225.0	 1	    1.08889	    1.00444;
	84	 1	 1.40	 -0.20	 0.0	 0.0	 1	    1.00000	    0.00000	 63.0	 1	    1.06349	    0.93651;
	85	 1	 1.80	 -2.00	 0.0	 0.0	 1	    1.00109	    0.00000	 63.0	 1	    1.06568	    0.93651;
	86	 1	 52.11	 3.70	 0.0	 0.0	 1	    1.02222	    0.00000	 90.0	 1	    1.06667	    0.97778;
	87	 1	 0.0	 0.0	 0.0	 0.0	 1	    1.01588	    0.00000	 63.0	 1	    1.07937	    0.95238;
	88	 1	 18.45	 2.00	 0.0	 0.0	 1	    1.00000	    0.00000	 63.0	 1	    1.06349	    0.93651;
	89	 1	 29.83	 0.40	 0.0	 0.0	 1	    1.02778	    0.00000	 90.0	 1	    1.07778	    0.97778;
	90	 1	 0.40	 -2.30	 0.0	 0.0	 1	    0.94444	    0.00000	 45.0	 1	    1.00000	    0.88889;
	91	 1	 0.0	 0.0	 0.0	 0.0	 1	    0.94444	    0.00000	 45.0	 1	    1.00000	    0.88889;
	92	 1	 36.67	 3.20	 0.0	 0.0	 1	    1.01587	    0.00000	 63.0	 1	    1.06349	    0.96825;
	93	 1	 2.20	 -2.20	 0.0	 0.0	 1	    0.94444	    0.00000	 45.0	 1	    1.00000	    0.88889;
	94	 1	 16.90	 -4.60	 0.0	 0.0	 1	    1.02222	    0.00000	 90.0	 1	    1.06667	    0.97778;
	95	 1	 61.74	 9.30	 0.0	 0.0	 1	    1.02222	    0.00000	 90.0	 1	    1.06667	    0.97778;
	96	 1	 1.39	 0.10	 0.0	 0.0	 1	    1.00000	    0.00000	 63.0	 1	    1.06349	    0.93651;
	97	 1	 63.83	 1.60	 0.0	 0.0	 1	    1.00000	    0.00000	 63.0	 1	    1.07937	    0.92063;
	98	 1	 7.70	 -2.10	 0.0	 0.0	 1	    1.01588	    0.00000	 63.0	 1	    1.07937	    0.95238;
	99	 1	 37.02	 5.00	 0.0	 0.0	 1	    1.01588	    0.00000	 63.0	 1	    1.07937	    0.95238;
	100	 1	 69.52	 8.90	 0.0	 0.0	 1	    1.00000	    0.00000	 63.0	 1	    1.06349	    0.93651;
	101	 1	 19.85	 0.10	 0.0	 0.0	 1	    1.00000	    0.00000	 63.0	 1	    1.06349	    0.93651;
	102	 2	 0.0	 0.0	 0.0	 0.0	 1	    1.01588	    0.00000	 63.0	 1	    1.07937	    0.95238;
	103	 1	 13.00	 -1.40	 0.0	 0.0	 1	    1.01588	    0.00000	 63.0	 1	    1.07937	    0.95238;
	104	 1	 0.0	 0.0	 0.0	 0.0	 1	    1.03778	    0.00000	 225.0	 1	    1.08889	    0.98667;
	105	 1	 43.75	 0.80	 0.0	 0.0	 1	    0.98889	    0.00000	 225.0	 1	    1.08889	    0.88889;
	106	 1	 65.34	 8.20	 0.0	 0.0	 1	    1.02222	    0.00000	 90.0	 1	    1.10000	    0.94444;
	107	 1	 124.65	 13.90	 0.0	 0.0	 1	    1.04666	    0.00000	 225.0	 1	    1.08444	    1.00889;
	108	 1	 12.70	 -3.90	 0.0	 0.0	 1	    1.02778	    0.00000	 90.0	 1	    1.07778	    0.97778;
	109	 1	 70.56	 4.10	 0.0	 0.0	 1	    1.00244	    0.00000	 63.0	 1	    1.06837	    0.93651;
	110	 1	 0.0	 0.0	 0.0	 0.0	 1	    1.01111	    0.00000	 225.0	 1	    1.08889	    0.93333;
	111	 1	 37.30	 -7.40	 0.0	 0.0	 1	    1.01587	    0.00000	 63.0	 1	    1.06349	    0.96825;
	112	 1	 0.0	 0.0	 0.0	 0.0	 1	    1.00000	    0.00000	 63.0	 1	    1.04762	    0.95238;
	113	 1	 0.0	 0.0	 0.0	 0.0	 1	    1.04666	    0.00000	 225.0	 1	    1.08889	    1.00444;
	114	 1	 14.97	 0.70	 0.0	 0.0	 1	    1.00000	    0.00000	 63.0	 1	    1.06349	    0.93651;
	115	 1	 0.0	 0.0	 0.0	 0.0	 1	    1.07895	    0.00000	 380.0	 1	    1.10526	    1.05263;
	116	 1	 0.0	 0.0	 0.0	 0.0	 1	    1.07895	    0.00000	 380.0	 1	    1.10526	    1.05263;
	117	 1	 12.80	 -2.10	 0.0	 0.0	 1	    1.01588	    0.00000	 63.0	 1	    1.07937	    0.95238;
	118	 1	 2.32	 0.80	 0.0	 0.0	 1	    1.02222	    0.00000	 90.0	 1	    1.06667	    0.97778;
	119	 1	 46.77	 3.70	 0.0	 0.0	 1	    1.00000	    0.00000	 63.0	 1	    1.06349	    0.93651;
	120	 1	 22.00	 -2.30	 0.0	 0.0	 1	    1.00000	    0.00000	 63.0	 1	    1.06349	    0.93651;
	121	 1	 25.65	 6.80	 0.0	 0.0	 1	    1.00000	    0.00000	 63.0	 1	    1.07937	    0.92063;
	122	 2	 0.0	 0.0	 0.0	 0.0	 1	    1.01588	    0.00000	 63.0	 1	    1.07937	    0.95238;
	123	 1	 12.77	 3.70	 0.0	 0.0	 1	    1.01588	    0.00000	 63.0	 1	    1.07937	    0.95238;
	124	 1	 8.90	 -2.20	 0.0	 0.0	 1	    1.02222	    0.00000	 90.0	 1	    1.06667	    0.97778;
	125	 1	 11.60	 -1.20	 0.0	 0.0	 1	    1.01588	    0.00000	 63.0	 1	    1.07937	    0.95238;
	126	 1	 0.46	 0.30	 0.0	 0.0	 1	    1.00000	    0.00000	 63.0	 1	    1.06349	    0.93651;
	127	 1	 12.42	 2.90	 0.0	 0.0	 1	    1.00000	    0.00000	 63.0	 1	    1.04762	    0.95238;
	128	 1	 15.55	 5.00	 0.0	 0.0	 1	    1.01587	    0.00000	 63.0	 1	    1.06349	    0.96825;
	129	 1	 19.73	 12.80	 0.0	 0.0	 1	    1.01587	    0.00000	 63.0	 1	    1.06349	    0.96825;
	130	 1	 0.0	 0.0	 0.0	 0.0	 1	    1.04666	    0.00000	 225.0	 1	    1.08444	    1.00889;
	131	 1	 128.48	 4.40	 0.0	 0.0	 1	    1.04666	    0.00000	 225.0	 1	    1.08444	    1.00889;
	132	 2	 9.40	 0.00	 0.0	 0.0	 1	    1.00000	    0.00000	 90.0	 1	    1.07778	    0.92222;
	133	 1	 2.50	 -0.10	 0.0	 0.0	 1	    1.00000	    0.00000	 63.0	 1	    1.04762	    0.95238;
	134	 1	 117.33	 28.60	 0.0	 0.0	 1	    1.04666	    0.00000	 225.0	 1	    1.08889	    1.00444;
	135	 1	 0.0	 0.0	 0.0	 0.0	 1	    1.04758	    0.00000	 225.0	 1	    1.09072	    1.00444;
	136	 1	 27.51	 0.60	 0.0	 0.0	 1	    1.02778	    0.00000	 90.0	 1	    1.07778	    0.97778;
	137	 2	 8.10	 -3.80	 0.0	 0.0	 1	    1.01587	    0.00000	 63.0	 1	    1.06349	    0.96825;
	138	 1	 0.0	 0.0	 0.0	 0.0	 1	    1.02333	    0.00000	 150.0	 1	    1.08000	    0.96667;
	139	 1	 18.22	 4.10	 0.0	 0.0	 1	    1.00000	    0.00000	 63.0	 1	    1.07937	    0.92063;
	140	 1	 0.0	 0.0	 0.0	 80.0	 1	    1.04445	    0.00000	 225.0	 1	    1.08889	    1.00000;
	141	 1	 0.0	 0.0	 0.0	 0.0	 1	    1.07895	    0.00000	 380.0	 1	    1.10526	    1.05263;
	142	 1	 14.51	 1.10	 0.0	 0.0	 1	    1.01588	    0.00000	 63.0	 1	    1.07937	    0.95238;
	143	 1	 0.0	 0.0	 0.0	 0.0	 1	    1.03778	    0.00000	 225.0	 1	    1.08889	    0.98667;
	144	 1	 10.33	 2.50	 0.0	 0.0	 1	    1.03333	    0.00000	 90.0	 1	    1.11111	    0.95556;
	145	 1	 27.85	 7.70	 0.0	 0.0	 1	    1.02889	    0.00000	 225.0	 1	    1.08889	    0.96889;
	146	 1	 0.0	 0.0	 0.0	 0.0	 1	    1.05263	    0.00000	 380.0	 1	    1.10526	    1.00000;
	147	 1	 32.50	 4.60	 0.0	 0.0	 1	    1.00000	    0.00000	 63.0	 1	    1.06349	    0.93651;
	148	 1	 7.66	 1.50	 0.0	 0.0	 1	    1.00000	    0.00000	 63.0	 1	    1.06349	    0.93651;
	149	 1	 18.45	 4.20	 0.0	 0.0	 1	    1.02222	    0.00000	 90.0	 1	    1.06667	    0.97778;
	150	 1	 56.17	 1.00	 0.0	 0.0	 1	    1.00000	    0.00000	 63.0	 1	    1.06349	    0.93651;
	151	 1	 0.0	 0.0	 0.0	 0.0	 1	    1.01587	    0.00000	 63.0	 1	    1.06349	    0.96825;
	152	 1	 49.44	 9.40	 0.0	 7.7	 1	    1.01587	    0.00000	 63.0	 1	    1.06349	    0.96825;
	153	 1	 26.90	 -4.90	 0.0	 0.0	 1	    1.00000	    0.00000	 63.0	 1	    1.06349	    0.93651;
	154	 1	 0.0	 0.0	 0.0	 0.0	 1	    1.01111	    0.00000	 225.0	 1	    1.08889	    0.93333;
	155	 2	 0.0	 0.0	 0.0	 0.0	 1	    1.00000	    0.00000	 63.0	 1	    1.07937	    0.92063;
	156	 1	 0.0	 0.0	 0.0	 0.0	 1	    1.01587	    0.00000	 63.0	 1	    1.06349	    0.96825;
	157	 1	 -1.40	 -2.30	 0.0	 0.0	 1	    0.94444	    0.00000	 45.0	 1	    1.00000	    0.88889;
	158	 2	 0.0	 0.0	 0.0	 0.0	 1	    0.94444	    0.00000	 45.0	 1	    1.00000	    0.88889;
	159	 1	 0.0	 0.0	 0.0	 0.0	 1	    1.00000	    0.00000	 63.0	 1	    1.06349	    0.93651;
	160	 1	 45.96	 5.70	 0.0	 0.0	 1	    0.98889	    0.00000	 225.0	 1	    1.08889	    0.88889;
	161	 1	 47.12	 10.80	 0.0	 0.0	 1	    0.98889	    0.00000	 225.0	 1	    1.08889	    0.88889;
	162	 1	 -0.10	 -1.20	 0.0	 0.0	 1	    1.02222	    0.00000	 90.0	 1	    1.06667	    0.97778;
	163	 1	 0.0	 0.0	 0.0	 0.0	 1	    1.01588	    0.00000	 63.0	 1	    1.07937	    0.95238;
	164	 1	 0.0	 0.0	 0.0	 0.0	 1	    1.01588	    0.00000	 63.0	 1	    1.07937	    0.95238;
	165	 1	 14.51	 6.70	 0.0	 0.0	 1	    0.97500	    0.00000	 20.0	 1	    1.15000	    0.80000;
	166	 1	 8.10	 -0.30	 0.0	 0.0	 1	    1.02222	    0.00000	 90.0	 1	    1.06667	    0.97778;
	167	 1	 8.30	 -2.00	 0.0	 0.0	 1	    1.02222	    0.00000	 90.0	 1	    1.06667	    0.97778;
	168	 1	 0.0	 0.0	 0.0	 0.0	 1	    1.04444	    0.00000	 225.0	 1	    1.08444	    1.00444;
	169	 1	 9.10	 -0.50	 0.0	 0.0	 1	    1.02222	    0.00000	 90.0	 1	    1.06667	    0.97778;
	170	 1	 91.45	 13.10	 0.0	 0.0	 1	    1.02778	    0.00000	 90.0	 1	    1.07778	    0.97778;
	171	 1	 26.30	 -0.90	 0.0	 30.0	 1	    1.02849	    0.00000	 90.0	 1	    1.07921	    0.97778;
	172	 1	 0.0	 0.0	 0.0	 0.0	 1	    1.04666	    0.00000	 225.0	 1	    1.08889	    1.00444;
	173	 1	 33.54	 8.20	 0.0	 0.0	 1	    1.01111	    0.00000	 90.0	 1	    1.08889	    0.93333;
	174	 1	 63.60	 9.70	 0.0	 0.0	 1	    1.03333	    0.00000	 90.0	 1	    1.11111	    0.95556;
	175	 1	 0.0	 0.0	 0.0	 0.0	 1	    1.00000	    0.00000	 63.0	 1	    1.07937	    0.92063;
	176	 2	 0.0	 0.0	 0.0	 0.0	 1	    1.00000	    0.00000	 150.0	 1	    1.10000	    0.90000;
	177	 1	 0.0	 0.0	 0.0	 0.0	 1	    1.04666	    0.00000	 225.0	 1	    1.08889	    1.00444;
	178	 1	 0.0	 0.0	 0.0	 0.0	 1	    1.04666	    0.00000	 225.0	 1	    1.08889	    1.00444;
	179	 1	 0.0	 0.0	 0.0	 0.0	 1	    1.00000	    0.00000	 63.0	 1	    1.04762	    0.95238;
	180	 1	 0.0	 0.0	 0.0	 0.0	 1	    1.04666	    0.00000	 225.0	 1	    1.08889	    1.00444;
	181	 1	 14.20	 -5.00	 0.0	 0.0	 1	    1.00000	    0.00000	 63.0	 1	    1.07937	    0.92063;
	182	 1	 17.41	 4.10	 0.0	 0.0	 1	    1.00000	    0.00000	 63.0	 1	    1.06349	    0.93651;
	183	 1	 6.20	 -0.70	 0.0	 0.0	 1	    1.01588	    0.00000	 63.0	 1	    1.07937	    0.95238;
	184	 1	 4.64	 1.40	 0.0	 0.0	 1	    1.02778	    0.00000	 90.0	 1	    1.07778	    0.97778;
	185	 1	 32.61	 2.70	 0.0	 0.0	 1	    1.01588	    0.00000	 63.0	 1	    1.07937	    0.95238;
	186	 1	 0.46	 1.30	 0.0	 0.0	 1	    1.02222	    0.00000	 90.0	 1	    1.06667	    0.97778;
	187	 2	 0.0	 0.0	 0.0	 0.0	 1	    1.00000	    0.00000	 63.0	 1	    1.07937	    0.92063;
	188	 1	 0.0	 0.0	 0.0	 0.0	 1	    1.01137	    0.00000	 63.0	 1	    1.10211	    0.92063;
	189	 1	 19.03	 2.10	 0.0	 0.0	 1	    1.00000	    0.00000	 63.0	 1	    1.07937	    0.92063;
	190	 2	 0.0	 0.0	 0.0	 0.0	 1	    0.94444	    0.00000	 45.0	 1	    1.00000	    0.88889;
	191	 1	 14.30	 -1.20	 0.0	 0.0	 1	    1.02222	    0.00000	 90.0	 1	    1.06667	    0.97778;
	192	 1	 7.20	 -2.00	 0.0	 0.0	 1	    1.00000	    0.00000	 63.0	 1	    1.07937	    0.92063;
	193	 1	 -0.30	 0.80	 0.0	 0.0	 1	    1.04666	    0.00000	 225.0	 1	    1.08889	    1.00444;
	194	 2	 0.70	 -2.20	 0.0	 0.0	 1	    1.00000	    0.00000	 63.0	 1	    1.07937	    0.92063;
	195	 1	 0.0	 0.0	 0.0	 0.0	 1	    1.01392	    0.00000	 63.0	 1	    1.07545	    0.95238;
	196	 1	 0.0	 0.0	 0.0	 0.0	 1	    1.01392	    0.00000	 63.0	 1	    1.07546	    0.95238;
	197	 1	 31.68	 0.80	 0.0	 15.0	 1	    1.00000	    0.00000	 63.0	 1	    1.07937	    0.92063;
	198	 1	 10.00	 -0.70	 0.0	 0.0	 1	    1.00000	    0.00000	 63.0	 1	    1.07937	    0.92063;
	199	 1	 13.23	 1.50	 0.0	 0.0	 1	    1.02222	    0.00000	 90.0	 1	    1.06667	    0.97778;
	200	 1	 0.0	 0.0	 0.0	 0.0	 1	    1.04445	    0.00000	 225.0	 1	    1.08889	    1.00000;
...
];

%% generator data
%	bus	Pg	Qg	Qmax	Qmin	Vg	mBase	status	Pmax	Pmin
mpc.gen = [
	4	 0.0	 0.0	 57.0	 -57.0	 1.01111	 100.0	 0	 113	 0.0; % COW
	4	 0.0	 0.0	 25.0	 -25.0	 1.01111	 100.0	 0	 50	 0.0; % NG
	5	 0.0	 0.0	 5.0	 -5.0	 1.00794	 100.0	 0	 10	 0.0; % NG
	11	 108.0	 0.0	 108.0	 -108.0	 1.0	 100.0	 1	 216	 0.0; % NG
	11	 0.0	 0.0	 90.0	 -90.0	 1.0	 100.0	 0	 180	 0.0; % NG
	17	 0.0	 0.0	 37.0	 -37.0	 1.02222	 100.0	 0	 74	 0.0; % PEL
	19	 0.0	 0.0	 16.0	 -16.0	 1.0	 100.0	 0	 31	 0.0; % PEL
	22	 0.0	 0.0	 34.0	 -34.0	 1.01588	 100.0	 0	 68	 0.0; % NG
	24	 0.0	 0.0	 40.0	 -40.0	 1.03333	 100.0	 0	 80	 0.0; % NG
	24	 0.0	 0.0	 9.0	 -9.0	 1.03333	 100.0	 0	 18	 0.0; % PEL
	25	 377.5	 0.0	 378.0	 -378.0	 1.02222	 100.0	 1	 755	 0.0; % PEL
	25	 0.0	 0.0	 29.0	 -29.0	 1.02222	 100.0	 0	 58	 0.0; % NG
	40	 0.0	 0.0	 110.0	 -110.0	 1.02778	 100.0	 0	 220	 0.0; % COW
	47	 17.5	 0.0	 18.0	 -18.0	 1.0	 100.0	 1	 35	 0.0; % COW
	47	 19.0	 0.0	 19.0	 -19.0	 1.0	 100.0	 1	 38	 0.0; % PEL
	48	 0.0	 0.0	 96.0	 -96.0	 1.0	 100.0	 0	 192	 0.0; % NG
	48	 0.0	 0.0	 1.0	 -1.0	 1.0	 100.0	 0	 2	 0.0; % PEL
	57	 35.0	 0.0	 35.0	 -35.0	 1.0	 100.0	 1	 70	 0.0; % COW
	64	 0.0	 0.0	 4.0	 -4.0	 0.98889	 100.0	 0	 7	 0.0; % PEL
	64	 0.0	 0.0	 193.0	 -193.0	 0.98889	 100.0	 0	 386	 0.0; % COW
	69	 0.0	 0.0	 6.0	 -6.0	 1.00794	 100.0	 0	 11	 0.0; % NG
	70	 0.0	 0.0	 53.0	 -53.0	 1.01588	 100.0	 0	 106	 0.0; % NG
	85	 65.5	 0.0	 66.0	 -66.0	 1.00109	 100.0	 1	 131	 0.0; % PEL
	86	 0.0	 0.0	 107.0	 -107.0	 1.02222	 100.0	 0	 213	 0.0; % NG
	102	 217.5	 0.0	 346.8	 -346.8	 1.01588	 100.0	 1	 435	 0.0; % NG
	122	 149.0	 0.0	 149.0	 -149.0	 1.01588	 100.0	 1	 298	 0.0; % PEL
	124	 0.0	 0.0	 14.0	 -14.0	 1.02222	 100.0	 0	 28	 0.0; % PEL
	125	 79.0	 0.0	 79.0	 -79.0	 1.01588	 100.0	 1	 158	 0.0; % NG
	125	 0.0	 0.0	 57.0	 -57.0	 1.01588	 100.0	 0	 114	 0.0; % NG
	132	 6.0	 0.0	 517.2	 -517.2	 1.0	 100.0	 1	 12	 0.0; % PEL
	132	 0.0	 1.0	 91.0	 -91.0	 1.0	 100.0	 0	 182	 0.0; % NG
	132	 0.0	 1.67	 480.0	 -480.0	 1.0	 100.0	 0	 959	 0.0; % COW
	132	 0.0	 1.67	 54.0	 -54.0	 1.0	 100.0	 0	 107	 0.0; % NG
	137	 0.0	 0.25	 7.0	 -7.0	 1.01587	 100.0	 0	 14	 0.0; % NG
	137	 48.0	 0.0	 48.0	 -48.0	 1.01587	 100.0	 1	 96	 0.0; % PEL
	155	 0.0	 1.76	 34.0	 -34.0	 1.0	 100.0	 0	 68	 0.0; % NG
	158	 74.0	 0.0	 74.0	 -74.0	 0.94444	 100.0	 1	 148	 0.0; % PEL
	158	 107.0	 0.0	 107.0	 -107.0	 0.94444	 100.0	 1	 214	 0.0; % PEL
	176	 0.0	 2.01	 10.0	 -5.0	 1.0	 100.0	 0	 9	 0.0; % NG
	187	 0.0	 2.28	 8.0	 -8.0	 1.0	 100.0	 0	 13	 0.0; % PEL
	187	 0.0	 2.0	 146.0	 -146.0	 1.0	 100.0	 0	 291	 0.0; % COW
	190	 0.0	 -0.23	 84.0	 -84.0	 0.94444	 100.0	 0	 167	 0.0; % NG
	192	 43.5	 0.0	 44.0	 -44.0	 1.0	 100.0	 1	 87	 0.0; % PEL
	194	 110.5	 0.0	 111.0	 -111.0	 1.0	 100.0	 1	 221	 0.0; % NG
	194	 69.5	 0.0	 70.0	 -70.0	 1.0	 100.0	 1	 139	 0.0; % NG
	217	 0.0	 0.0	 84.0	 -84.0	 1.02222	 100.0	 0	 168	 0.0; % NG
	224	 0.0	 1.99	 16.0	 -16.0	 1.0	 100.0	 0	 32	 0.0; % NG
	227	 0.0	 0.0	 23.0	 -23.0	 1.00794	 100.0	 0	 45	 0.0; % PEL
	236	 0.0	 0.0	 2.0	 -2.0	 1.0	 100.0	 0	 4	 0.0; % PEL
	236	 0.0	 0.0	 17.0	 -17.0	 1.0	 100.0	 0	 33	 0.0; % PEL
	238	 0.0	 0.0	 2.0	 -2.0	 1.02222	 100.0	 0	 3	 0.0; % PEL
	238	 0.0	 0.0	 32.0	 -32.0	 1.02222	 100.0	 0	 63	 0.0; % NG
	246	 0.0	 0.0	 2.0	 0.0	 1.0	 100.0	 0	 0	 0.0; % PEL
	246	 0.0	 -0.18	 26.0	 -26.0	 1.0	 100.0	 0	 52	 0.0; % PEL
	246	 0.0	 -0.18	 14.0	 -14.0	 1.0	 100.0	 0	 27	 0.0; % NG
	246	 0.0	 -0.18	 13.0	 -13.0	 1.0	 100.0	 0	 25	 0.0; % NG
	256	 101.5	 0.0	 102.0	 -102.0	 1.0	 100.0	 1	 203	 0.0; % NG
	256	 43.5	 0.0	 44.0	 -44.0	 1.0	 100.0	 1	 87	 0.0; % PEL
	258	 7.0	 0.0	 56.4	 -56.4	 1.00073	 100.0	 1	 14	 0.0; % NG
	261	 0.0	 2.0	 4.0	 -4.0	 1.0	 100.0	 0	 3	 0.0; % PEL
	269	 0.0	 0.0	 102.0	 -102.0	 1.0	 100.0	 0	 203	 0.0; % COW
	282	 0.0	 -0.19	 33.0	 -33.0	 1.0	 100.0	 0	 66	 0.0; % PEL
	295	 0.0	 0.0	 93.0	 -93.0	 0.98889	 100.0	 0	 186	 0.0; % NG
	296	 24.0	 0.0	 24.0	 -24.0	 1.01588	 100.0	 1	 48	 0.0; % NG
	305	 42.0	 0.0	 42.0	 -42.0	 1.00369	 100.0	 1	 84	 0.0; % PEL
	312	 12.0	 0.0	 64.8	 -64.8	 1.0	 100.0	 1	 24	 0.0; % NG
	312	 45.0	 0.0	 64.8	 -64.8	 1.0	 100.0	 1	 90	 0.0; % NG
	317	 0.0	 0.0	 0.0	 0.0	 1.0	 100.0	 0	 0	 -7.0; % SYNC
	317	 0.0	 0.0	 0.0	 0.0	 1.0	 100.0	 0	 0	 -7.0; % SYNC
	319	 0.0	 0.1	 47.0	 -47.0	 1.0	 100.0	 0	 93	 0.0; % NG
	325	 0.0	 -0.04	 42.0	 -42.0	 1.0	 100.0	 0	 83	 0.0; % NG
	332	 0.0	 0.68	 169.0	 -169.0	 1.01587	 100.0	 0	 338	 0.0; % COW
	333	 0.0	 4.58	 13.0	 -9.0	 1.02333	 100.0	 0	 16	 0.0; % PEL
	336	 22.0	 0.0	 76.8	 -76.8	 1.0	 100.0	 1	 44	 0.0; % PEL
	338	 0.0	 1.58	 22.0	 -22.0	 1.0	 100.0	 0	 44	 0.0; % PEL
	338	 0.0	 0.1	 39.0	 -39.0	 1.0	 100.0	 0	 77	 0.0; % PEL
	345	 0.0	 0.0	 7.0	 -7.0	 1.02778	 100.0	 0	 14	 0.0; % PEL
	345	 0.5	 0.0	 27.6	 -27.6	 1.02778	 100.0	 1	 1	 0.0; % PEL
	348	 0.0	 0.0	 8.0	 -8.0	 1.02222	 100.0	 0	 15	 0.0; % COW
	357	 0.0	 0.0	 22.0	 -22.0	 1.01588	 100.0	 0	 43	 0.0; % NG
	357	 0.0	 0.0	 93.0	 -93.0	 1.01588	 100.0	 0	 186	 0.0; % NG
	364	 477.0	 0.0	 477.0	 -477.0	 1.04666	 100.0	 1	 954	 0.0; % NG
	391	 0.0	 0.0	 7.0	 -7.0	 1.0	 100.0	 0	 13	 0.0; % PEL
	409	 0.0	 0.73	 49.0	 -49.0	 1.01587	 100.0	 0	 97	 0.0; % PEL
	411	 0.0	 0.0	 27.0	 -27.0	 1.02222	 100.0	 0	 53	 0.0; % NG
	411	 0.0	 0.0	 11.0	 -11.0	 1.02222	 100.0	 0	 22	 0.0; % PEL
	431	 53.0	 0.0	 53.0	 -53.0	 1.0	 100.0	 1	 106	 0.0; % NG
	440	 0.0	 1.45	 63.0	 -63.0	 1.0	 100.0	 0	 126	 0.0; % NG
	447	 49.0	 0.0	 49.0	 -49.0	 1.01587	 100.0	 1	 98	 0.0; % NG
	462	 0.0	 0.0	 17.0	 -17.0	 1.00794	 100.0	 0	 34	 0.0; % PEL
	462	 0.0	 0.0	 154.0	 -154.0	 1.00794	 100.0	 0	 307	 0.0; % NG
	464	 19.25	 0.0	 19.0	 -19.0	 0.9844	 100.0	 1	 38	 0.5; % NG
	464	 22.25	 0.0	 22.0	 -22.0	 0.9844	 100.0	 1	 44	 0.5; % NG
	466	 0.0	 0.0	 22.0	 -22.0	 1.00794	 100.0	 0	 44	 0.5; % NG
	470	 0.0	 -0.57	 29.0	 -29.0	 1.0	 100.0	 0	 57	 0.0; % NG
	470	 0.0	 -3.08	 35.0	 -35.0	 1.0	 100.0	 0	 69	 0.0; % NG
	479	 0.0	 -0.09	 20.0	 -20.0	 1.0	 100.0	 0	 39	 0.0; % NG
	479	 0.0	 -0.09	 74.0	 -74.0	 1.0	 100.0	 0	 147	 0.0; % NG
	479	 0.0	 -0.09	 17.0	 -16.0	 1.0	 100.0	 0	 5	 0.0; % NG
	491	 0.0	 -0.75	 36.0	 -36.0	 1.03333	 100.0	 0	 71	 0.0; % PEL
	508	 0.0	 1.72	 100.0	 -100.0	 1.0	 100.0	 0	 200	 0.0; % NG
	519	 0.0	 0.0	 2.0	 -2.0	 1.01587	 100.0	 0	 3	 0.0; % NG
	520	 0.0	 0.0	 27.0	 -27.0	 1.02222	 100.0	 0	 54	 0.0; % NG
	530	 136.0	 0.0	 136.0	 -136.0	 1.0	 100.0	 1	 272	 0.0; % COW
	530	 31.5	 0.0	 32.0	 -32.0	 1.0	 100.0	 1	 63	 0.0; % PEL
	530	 52.0	 0.0	 52.0	 -52.0	 1.0	 100.0	 1	 104	 0.0; % NG
	537	 0.0	 0.0	 37.0	 -37.0	 1.02222	 100.0	 0	 74	 0.0; % NG
	537	 117.0	 0.0	 117.0	 -117.0	 1.02222	 100.0	 1	 234	 0.0; % NG
	546	 24.5	 0.0	 25.0	 -25.0	 1.0	 100.0	 1	 49	 0.0; % NG
	548	 0.0	 2.0	 9.0	 -9.0	 1.0	 100.0	 0	 17	 0.0; % PEL
	570	 0.0	 0.0	 8.0	 -8.0	 1.01588	 100.0	 0	 16	 0.0; % PEL
	570	 0.0	 0.0	 41.0	 -41.0	 1.01588	 100.0	 0	 82	 0.0; % PEL
	570	 0.0	 0.0	 58.0	 -58.0	 1.01588	 100.0	 0	 116	 0.0; % NG
	583	 159.5	 0.0	 160.0	 -160.0	 1.0	 100.0	 1	 319	 0.0; % PEL
	585	 0.0	 0.0	 358.0	 -358.0	 1.01588	 100.0	 0	 716	 0.0; % COW
	586	 0.0	 4.61	 135.0	 -135.0	 1.0	 100.0	 0	 269	 0.0; % NG
	589	 0.0	 0.1	 7.0	 -7.0	 1.0	 100.0	 0	 14	 0.0; % PEL
	593	 0.0	 1.34	 14.0	 -14.0	 1.0	 100.0	 0	 28	 0.0; % PEL
	600	 0.0	 0.37	 116.0	 -116.0	 1.01587	 100.0	 0	 231	 0.0; % NG
	610	 166.0	 0.0	 166.0	 -166.0	 0.975	 100.0	 1	 332	 0.0; % NG
	610	 0.0	 -0.16	 45.0	 -45.0	 0.975	 100.0	 0	 59	 0.0; % NG
	612	 0.0	 0.0	 66.0	 -66.0	 1.02222	 100.0	 0	 131	 0.0; % COW
	612	 0.0	 0.0	 5.0	 -5.0	 1.02222	 100.0	 0	 9	 0.0; % NG
	612	 0.0	 0.0	 29.0	 -29.0	 1.02222	 100.0	 0	 58	 0.0; % PEL
	613	 0.0	 0.0	 125.0	 -125.0	 1.0	 100.0	 0	 249	 0.0; % NG
	613	 0.0	 0.0	 4.0	 -4.0	 1.0	 100.0	 0	 7	 0.0; % NG
	624	 40.85	 0.0	 74.4	 -74.4	 1.01111	 100.0	 1	 90	 -8.3; % NG
	633	 0.0	 -4.7	 55.0	 -55.0	 1.0	 100.0	 0	 109	 0.0; % NG
	636	 0.0	 0.5	 25.0	 -25.0	 1.01587	 100.0	 0	 50	 0.0; % COW
	636	 61.0	 0.0	 61.0	 -61.0	 1.01587	 100.0	 1	 122	 0.0; % PEL
	641	 73.0	 0.0	 175.2	 -175.2	 1.07997	 100.0	 1	 146	 0.0; % NG
	652	 0.0	 1.32	 94.0	 -94.0	 1.0	 100.0	 0	 187	 0.0; % NG
	670	 39.5	 0.0	 40.0	 -40.0	 1.02222	 100.0	 1	 79	 0.0; % PEL
	670	 54.0	 0.0	 54.0	 -54.0	 1.02222	 100.0	 1	 108	 0.0; % NG
	671	 0.0	 0.0	 30.0	 -30.0	 1.02778	 100.0	 0	 59	 0.0; % NG
	671	 5.5	 0.0	 49.2	 -49.2	 1.02778	 100.0	 1	 11	 0.0; % NG
	679	 0.0	 0.0	 4.0	 -4.0	 1.02222	 100.0	 0	 7	 0.0; % PEL
	680	 0.0	 0.0	 34.0	 -34.0	 1.02237	 100.0	 0	 67	 0.0; % COW
	684	 33.0	 0.0	 33.0	 -33.0	 0.94444	 100.0	 1	 66	 0.0; % NG
	684	 20.5	 0.0	 21.0	 -21.0	 0.94444	 100.0	 1	 41	 0.0; % COW
	684	 0.0	 1.87	 66.0	 -66.0	 0.94444	 100.0	 0	 131	 0.0; % NG
	684	 26.5	 0.0	 27.0	 -27.0	 0.94444	 100.0	 1	 53	 0.0; % NG
	695	 0.0	 0.0	 32.0	 -32.0	 1.02222	 100.0	 0	 63	 0.0; % PEL
	695	 0.0	 0.0	 7.0	 -7.0	 1.02222	 100.0	 0	 13	 0.0; % NG
	695	 0.0	 0.0	 4.0	 -4.0	 1.02222	 100.0	 0	 7	 0.0; % PEL
	699	 53.5	 0.0	 54.0	 -54.0	 0.975	 100.0	 1	 107	 0.0; % NG
	699	 23.0	 0.0	 23.0	 -23.0	 0.975	 100.0	 1	 46	 0.0; % NG
	698	 62.5	 0.0	 63.0	 -63.0	 0.975	 100.0	 1	 125	 0.0; % NG
	698	 63.0	 0.0	 63.0	 -63.0	 0.975	 100.0	 1	 126	 0.0; % NG
	697	 23.0	 0.0	 23.0	 -23.0	 0.975	 100.0	 1	 46	 0.0; % NG
	697	 42.5	 0.0	 43.0	 -43.0	 0.975	 100.0	 1	 85	 0.0; % PEL
	705	 0.0	 2.0	 3.0	 -3.0	 0.94444	 100.0	 0	 6	 0.0; % PEL
	705	 0.0	 2.5	 54.0	 -54.0	 0.94444	 100.0	 0	 107	 0.0; % NG
	705	 29.5	 0.0	 31.2	 -31.2	 0.94444	 100.0	 1	 59	 0.0; % PEL
	705	 0.0	 0.84	 116.0	 -116.0	 0.94444	 100.0	 0	 231	 0.0; % COW
	732	 0.0	 0.0	 3.0	 -3.0	 1.02222	 100.0	 0	 6	 0.0; % PEL
	733	 49.5	 0.0	 50.0	 -50.0	 1.0	 100.0	 1	 99	 0.0; % NG
	734	 0.0	 0.0	 20.0	 -20.0	 1.01588	 100.0	 0	 40	 0.0; % NG
	734	 0.0	 0.0	 20.0	 -20.0	 1.01588	 100.0	 0	 39	 0.0; % PEL
	736	 0.0	 0.0	 14.0	 -14.0	 1.0	 100.0	 0	 27	 0.0; % NG
	736	 546.0	 0.0	 546.0	 -546.0	 1.0	 100.0	 1	 1092	 0.0; % COW
	737	 0.0	 0.1	 165.0	 -165.0	 1.0	 100.0	 0	 330	 0.0; % NG
	744	 0.0	 3.85	 4.22	 -4.62	 1.0	 100.0	 0	 5	 0.0; % PEL
	744	 0.0	 4.02	 23.0	 -23.0	 1.0	 100.0	 0	 45	 0.0; % NG
	745	 42.0	 0.0	 42.0	 -42.0	 1.0	 100.0	 1	 84	 0.0; % PEL
	746	 5.75	 0.0	 31.2	 -31.2	 1.02222	 100.0	 1	 11	 0.5; % PEL
	751	 0.0	 -0.18	 115.0	 -115.0	 1.0	 100.0	 0	 230	 -5.0; % NG
	758	 0.0	 -2.68	 15.0	 -15.0	 0.98889	 100.0	 0	 29	 0.0; % PEL
	760	 0.0	 0.0	 9.0	 -9.0	 1.00071	 100.0	 0	 17	 0.0; % NG
	761	 0.0	 0.0	 25.0	 -25.0	 1.0	 100.0	 0	 50	 0.0; % NG
	760	 157.0	 0.0	 157.0	 -157.0	 1.00071	 100.0	 1	 314	 0.0; % COW
	761	 136.0	 0.0	 136.0	 -136.0	 1.0	 100.0	 1	 272	 0.0; % NG
	762	 0.0	 0.06	 38.0	 -38.0	 0.825	 100.0	 0	 75	 0.0; % PEL
	762	 0.0	 1.73	 113.0	 -113.0	 0.825	 100.0	 0	 226	 0.0; % NG
	762	 0.0	 0.16	 41.0	 -41.0	 0.825	 100.0	 0	 81	 0.0; % PEL
	762	 0.0	 0.11	 32.0	 -32.0	 0.825	 100.0	 0	 63	 0.0; % PEL
	766	 0.0	 0.0	 13.0	 -13.0	 1.01588	 100.0	 0	 26	 0.0; % PEL
	766	 0.0	 0.0	 44.0	 -44.0	 1.01588	 100.0	 0	 87	 0.0; % NG
	786	 0.0	 -0.79	 26.0	 -26.0	 0.975	 100.0	 0	 3	 0.0; % PEL
	786	 0.0	 -0.79	 106.0	 -106.0	 0.975	 100.0	 0	 212	 0.0; % COW
	787	 0.0	 -0.71	 26.0	 -26.0	 0.975	 100.0	 0	 14	 0.0; % PEL
	801	 23.5	 0.0	 24.0	 -24.0	 0.975	 100.0	 1	 47	 0.0; % NG
	801	 13.5	 -1.0	 15.0	 -17.0	 0.975	 100.0	 1	 27	 0.0; % PEL
	802	 65.5	 0.0	 66.0	 -66.0	 0.975	 100.0	 1	 131	 0.0; % PEL
	802	 36.0	 0.0	 36.0	 -36.0	 0.975	 100.0	 1	 72	 0.0; % PEL
	803	 23.0	 0.0	 23.0	 -23.0	 0.975	 100.0	 1	 46	 0.0; % PEL
	803	 57.5	 0.0	 58.0	 -58.0	 0.975	 100.0	 1	 115	 0.0; % NG
	807	 73.0	 0.0	 73.0	 -73.0	 1.0	 100.0	 1	 146	 0.0; % PEL
	815	 75.25	 0.0	 75.0	 -75.0	 1.01587	 100.0	 1	 150	 0.5; % PEL
	815	 0.0	 0.0	 35.0	 -35.0	 1.01587	 100.0	 0	 69	 0.5; % NG
	816	 39.25	 0.0	 39.0	 -39.0	 1.01587	 100.0	 1	 78	 0.5; % PEL
	816	 34.25	 0.0	 34.0	 -34.0	 1.01587	 100.0	 1	 68	 0.5; % PEL
	816	 56.25	 0.0	 56.0	 -56.0	 1.01587	 100.0	 1	 112	 0.5; % NG
	816	 136.75	 0.0	 137.0	 -137.0	 1.01587	 100.0	 1	 273	 0.5; % NG
	826	 0.0	 1.48	 41.0	 -41.0	 1.0	 100.0	 0	 81	 0.0; % NG
	826	 0.0	 3.0	 45.0	 -45.0	 1.0	 100.0	 0	 90	 0.0; % PEL
	829	 0.0	 0.0	 2.0	 -2.0	 1.02222	 100.0	 0	 4	 0.0; % PEL
	830	 211.5	 0.0	 212.0	 -212.0	 1.0	 100.0	 1	 423	 0.0; % NG
	831	 0.0	 -0.33	 10.0	 -10.0	 0.94444	 100.0	 0	 2	 0.0; % NG
	833	 0.0	 -0.46	 33.0	 -33.0	 1.0	 100.0	 0	 66	 0.0; % PEL
...
];

%% generator cost data
%	2	startup	shutdown	n	c(n-1)	...	c0
mpc.gencost = [
	2	 0.0	 0.0	 3	   0.000000	  53.504391	   0.000000; % COW
	2	 0.0	 0.0	 3	   0.000000	  32.508375	   0.000000; % NG
	2	 0.0	 0.0	 3	   0.000000	  10.716435	   0.000000; % NG
	2	 0.0	 0.0	 3	   0.000000	 129.027919	   0.000000; % NG
	2	 0.0	 0.0	 3	   0.000000	 100.545331	   0.000000; % NG
	2	 0.0	 0.0	 3	   0.000000	  15.889083	   0.000000; % PEL
	2	 0.0	 0.0	 3	   0.000000	 118.691085	   0.000000; % PEL
	2	 0.0	 0.0	 3	   0.000000	  39.318963	   0.000000; % NG
	2	 0.0	 0.0	 3	   0.000000	  35.709311	   0.000000; % NG
	2	 0.0	 0.0	 3	   0.000000	  24.770561	   0.000000; % PEL
	2	 0.0	 0.0	 3	   0.000000	 120.007581	   0.000000; % PEL
	2	 0.0	 0.0	 3	   0.000000	  27.418090	   0.000000; % NG
	2	 0.0	 0.0	 3	   0.000000	  27.833133	   0.000000; % COW
	2	 0.0	 0.0	 3	   0.000000	  42.352851	   0.000000; % COW
	2	 0.0	 0.0	 3	   0.000000	 129.030581	   0.000000; % PEL
	2	 0.0	 0.0	 3	   0.000000	  26.841169	   0.000000; % NG
	2	 0.0	 0.0	 3	   0.000000	  99.746003	   0.000000; % PEL
	2	 0.0	 0.0	 3	   0.000000	  30.494413	   0.000000; % COW
	2	 0.0	 0.0	 3	   0.000000	 116.664437	   0.000000; % PEL
	2	 0.0	 0.0	 3	   0.000000	  14.414846	   0.000000; % COW
	2	 0.0	 0.0	 3	   0.000000	  35.140106	   0.000000; % NG
	2	 0.0	 0.0	 3	   0.000000	 134.972244	   0.000000; % NG
	2	 0.0	 0.0	 3	   0.000000	  49.165583	   0.000000; % PEL
	2	 0.0	 0.0	 3	   0.000000	  27.952313	   0.000000; % NG
	2	 0.0	 0.0	 3	   0.000000	  59.296565	   0.000000; % NG
	2	 0.0	 0.0	 3	   0.000000	  29.998005	   0.000000; % PEL
	2	 0.0	 0.0	 3	   0.000000	  42.206624	   0.000000; % PEL
	2	 0.0	 0.0	 3	   0.000000	  39.395964	   0.000000; % NG
	2	 0.0	 0.0	 3	   0.000000	  54.077343	   0.000000; % NG
	2	 0.0	 0.0	 3	   0.000000	 107.061703	   0.000000; % PEL
	2	 0.0	 0.0	 3	   0.000000	  39.369040	   0.000000; % NG
	2	 0.0	 0.0	 3	   0.000000	   6.321676	   0.000000; % COW
	2	 0.0	 0.0	 3	   0.000000	 108.466109	   0.000000; % NG
	2	 0.0	 0.0	 3	   0.000000	  91.897742	   0.000000; % NG
	2	 0.0	 0.0	 3	   0.000000	 115.294977	   0.000000; % PEL
	2	 0.0	 0.0	 3	   0.000000	  11.152294	   0.000000; % NG
	2	 0.0	 0.0	 3	   0.000000	  14.388369	   0.000000; % PEL
	2	 0.0	 0.0	 3	   0.000000	  25.546811	   0.000000; % PEL
	2	 0.0	 0.0	 3	   0.000000	 121.131138	   0.000000; % NG
	2	 0.0	 0.0	 3	   0.000000	  51.514740	   0.000000; % PEL
	2	 0.0	 0.0	 3	   0.000000	  26.490798	   0.000000; % COW
	2	 0.0	 0.0	 3	   0.000000	  14.619751	   0.000000; % NG
	2	 0.0	 0.0	 3	   0.000000	 117.413179	   0.000000; % PEL
	2	 0.0	 0.0	 3	   0.000000	  18.779921	   0.000000; % NG
	2	 0.0	 0.0	 3	   0.000000	 111.726624	   0.000000; % NG
	2	 0.0	 0.0	 3	   0.000000	  42.100245	   0.000000; % NG
	2	 0.0	 0.0	 3	   0.000000	 105.006697	   0.000000; % NG
	2	 0.0	 0.0	 3	   0.000000	  39.012698	   0.000000; % PEL
	2	 0.0	 0.0	 3	   0.000000	  27.731281	   0.000000; % PEL
	2	 0.0	 0.0	 3	   0.000000	 121.021000	   0.000000; % PEL
	2	 0.0	 0.0	 3	   0.000000	  28.895876	   0.000000; % PEL
	2	 0.0	 0.0	 3	   0.000000	  45.057743	   0.000000; % NG
	2	 0.0	 0.0	 3	   0.000000	 108.815713	   0.000000; % PEL
	2	 0.0	 0.0	 3	   0.000000	   9.096664	   0.000000; % PEL
	2	 0.0	 0.0	 3	   0.000000	  97.228958	   0.000000; % NG
	2	 0.0	 0.0	 3	   0.000000	  44.720301	   0.000000; % NG
	2	 0.0	 0.0	 3	   0.000000	 103.635347	   0.000000; % NG
	2	 0.0	 0.0	 3	   0.000000	  25.164995	   0.000000; % PEL
	2	 0.0	 0.0	 3	   0.000000	 114.728595	   0.000000; % NG
	2	 0.0	 0.0	 3	   0.000000	  31.928571	   0.000000; % PEL
	2	 0.0	 0.0	 3	   0.000000	  21.762080	   0.000000; % COW
	2	 0.0	 0.0	 3	   0.000000	  41.989407	   0.000000; % PEL
	2	 0.0	 0.0	 3	   0.000000	 105.621264	   0.000000; % NG
	2	 0.0	 0.0	 3	   0.000000	  40.460280	   0.000000; % NG
	2	 0.0	 0.0	 3	   0.000000	 106.108740	   0.000000; % PEL
	2	 0.0	 0.0	 3	   0.000000	  21.045106	   0.000000; % NG
	2	 0.0	 0.0	 3	   0.000000	 133.217831	   0.000000; % NG
	2	 0.0	 0.0	 3	   0.000000	   0.000000	   0.000000; % SYNC
	2	 0.0	 0.0	 3	   0.000000	   0.000000	   0.000000; % SYNC
	2	 0.0	 0.0	 3	   0.000000	  38.122923	   0.000000; % NG
	2	 0.0	 0.0	 3	   0.000000	  52.834338	   0.000000; % NG
	2	 0.0	 0.0	 3	   0.000000	  39.008753	   0.000000; % COW
	2	 0.0	 0.0	 3	   0.000000	 108.424626	   0.000000; % PEL
	2	 0.0	 0.0	 3	   0.000000	  30.149604	   0.000000; % PEL
	2	 0.0	 0.0	 3	   0.000000	  17.433095	   0.000000; % PEL
	2	 0.0	 0.0	 3	   0.000000	  88.854729	   0.000000; % PEL
	2	 0.0	 0.0	 3	   0.000000	 121.482492	   0.000000; % PEL
	2	 0.0	 0.0	 3	   0.000000	 103.558003	   0.000000; % PEL
	2	 0.0	 0.0	 3	   0.000000	 113.192972	   0.000000; % COW
	2	 0.0	 0.0	 3	   0.000000	 120.621395	   0.000000; % NG
	2	 0.0	 0.0	 3	   0.000000	  34.202184	   0.000000; % NG
	2	 0.0	 0.0	 3	   0.000000	  28.618145	   0.000000; % NG
	2	 0.0	 0.0	 3	   0.000000	 104.658892	   0.000000; % PEL
	2	 0.0	 0.0	 3	   0.000000	  20.939916	   0.000000; % PEL
	2	 0.0	 0.0	 3	   0.000000	  32.820999	   0.000000; % NG
	2	 0.0	 0.0	 3	   0.000000	  28.994129	   0.000000; % PEL
	2	 0.0	 0.0	 3	   0.000000	  99.289866	   0.000000; % NG
	2	 0.0	 0.0	 3	   0.000000	 111.795836	   0.000000; % NG
	2	 0.0	 0.0	 3	   0.000000	  92.169237	   0.000000; % NG
	2	 0.0	 0.0	 3	   0.000000	  95.641617	   0.000000; % PEL
	2	 0.0	 0.0	 3	   0.000000	 108.503477	   0.000000; % NG
	2	 0.0	 0.0	 3	   0.000000	  45.747567	   0.000000; % NG
	2	 0.0	 0.0	 3	   0.000000	 119.470558	   0.000000; % NG
	2	 0.0	 0.0	 3	   0.000000	 114.562996	   0.000000; % NG
	2	 0.0	 0.0	 3	   0.000000	  42.487379	   0.000000; % NG
	2	 0.0	 0.0	 3	   0.000000	  15.941005	   0.000000; % NG
	2	 0.0	 0.0	 3	   0.000000	 117.547379	   0.000000; % NG
	2	 0.0	 0.0	 3	   0.000000	  21.410254	   0.000000; % NG
	2	 0.0	 0.0	 3	   0.000000	  24.302999	   0.000000; % NG
	2	 0.0	 0.0	 3	   0.000000	  20.747564	   0.000000; % PEL
	2	 0.0	 0.0	 3	   0.000000	  25.918907	   0.000000; % NG
	2	 0.0	 0.0	 3	   0.000000	  30.136192	   0.000000; % NG
	2	 0.0	 0.0	 3	   0.000000	  25.662853	   0.000000; % NG
	2	 0.0	 0.0	 3	   0.000000	  22.832289	   0.000000; % COW
	2	 0.0	 0.0	 3	   0.000000	  36.146654	   0.000000; % PEL
	2	 0.0	 0.0	 3	   0.000000	 113.099224	   0.000000; % NG
	2	 0.0	 0.0	 3	   0.000000	  33.947006	   0.000000; % NG
	2	 0.0	 0.0	 3	   0.000000	 105.763597	   0.000000; % NG
	2	 0.0	 0.0	 3	   0.000000	  44.947686	   0.000000; % NG
	2	 0.0	 0.0	 3	   0.000000	  35.384778	   0.000000; % PEL
	2	 0.0	 0.0	 3	   0.000000	  50.161835	   0.000000; % PEL
	2	 0.0	 0.0	 3	   0.000000	  16.173483	   0.000000; % PEL
	2	 0.0	 0.0	 3	   0.000000	  28.329067	   0.000000; % NG
	2	 0.0	 0.0	 3	   0.000000	  26.830772	   0.000000; % PEL
	2	 0.0	 0.0	 3	   0.000000	  38.439168	   0.000000; % COW
	2	 0.0	 0.0	 3	   0.000000	  30.766553	   0.000000; % NG
	2	 0.0	 0.0	 3	   0.000000	 112.034252	   0.000000; % PEL
	2	 0.0	 0.0	 3	   0.000000	 111.256661	   0.000000; % PEL
	2	 0.0	 0.0	 3	   0.000000	  31.903692	   0.000000; % NG
	2	 0.0	 0.0	 3	   0.000000	  37.571461	   0.000000; % NG
	2	 0.0	 0.0	 3	   0.000000	  30.824418	   0.000000; % NG
	2	 0.0	 0.0	 3	   0.000000	   9.522708	   0.000000; % COW
	2	 0.0	 0.0	 3	   0.000000	  29.148754	   0.000000; % NG
	2	 0.0	 0.0	 3	   0.000000	  49.107105	   0.000000; % PEL
	2	 0.0	 0.0	 3	   0.000000	 107.903003	   0.000000; % NG
	2	 0.0	 0.0	 3	   0.000000	  18.968990	   0.000000; % NG
	2	 0.0	 0.0	 3	   0.000000	  45.025270	   0.000000; % NG
	2	 0.0	 0.0	 3	   0.000000	  34.667931	   0.000000; % NG
	2	 0.0	 0.0	 3	   0.000000	 115.801776	   0.000000; % COW
	2	 0.0	 0.0	 3	   0.000000	 101.500034	   0.000000; % PEL
	2	 0.0	 0.0	 3	   0.000000	  52.218741	   0.000000; % NG
	2	 0.0	 0.0	 3	   0.000000	  29.986124	   0.000000; % NG
	2	 0.0	 0.0	 3	   0.000000	  18.287270	   0.000000; % PEL
	2	 0.0	 0.0	 3	   0.000000	  19.695702	   0.000000; % NG
	2	 0.0	 0.0	 3	   0.000000	  16.041935	   0.000000; % NG
	2	 0.0	 0.0	 3	   0.000000	 124.968066	   0.000000; % NG
	2	 0.0	 0.0	 3	   0.000000	  46.900362	   0.000000; % PEL
	2	 0.0	 0.0	 3	   0.000000	  19.746809	   0.000000; % COW
	2	 0.0	 0.0	 3	   0.000000	  53.419403	   0.000000; % NG
	2	 0.0	 0.0	 3	   0.000000	  30.436505	   0.000000; % COW
	2	 0.0	 0.0	 3	   0.000000	 130.177918	   0.000000; % NG
	2	 0.0	 0.0	 3	   0.000000	   9.833102	   0.000000; % NG
	2	 0.0	 0.0	 3	   0.000000	  52.556342	   0.000000; % PEL
	2	 0.0	 0.0	 3	   0.000000	  42.971076	   0.000000; % NG
	2	 0.0	 0.0	 3	   0.000000	  32.553280	   0.000000; % PEL
	2	 0.0	 0.0	 3	   0.000000	  33.859824	   0.000000; % NG
	2	 0.0	 0.0	 3	   0.000000	  34.630533	   0.000000; % NG
	2	 0.0	 0.0	 3	   0.000000	  99.666935	   0.000000; % NG
	2	 0.0	 0.0	 3	   0.000000	 121.167121	   0.000000; % NG
	2	 0.0	 0.0	 3	   0.000000	  34.220455	   0.000000; % NG
	2	 0.0	 0.0	 3	   0.000000	  30.927873	   0.000000; % PEL
	2	 0.0	 0.0	 3	   0.000000	  11.674529	   0.000000; % PEL
	2	 0.0	 0.0	 3	   0.000000	  34.846550	   0.000000; % NG
	2	 0.0	 0.0	 3	   0.000000	  34.713775	   0.000000; % PEL
	2	 0.0	 0.0	 3	   0.000000	  15.847005	   0.000000; % COW
	2	 0.0	 0.0	 3	   0.000000	  41.864113	   0.000000; % PEL
	2	 0.0	 0.0	 3	   0.000000	  36.879701	   0.000000; % NG
	2	 0.0	 0.0	 3	   0.000000	  22.511667	   0.000000; % NG
	2	 0.0	 0.0	 3	   0.000000	 132.395456	   0.000000; % PEL
	2	 0.0	 0.0	 3	   0.000000	  32.079079	   0.000000; % NG
	2	 0.0	 0.0	 3	   0.000000	 110.404017	   0.000000; % COW
	2	 0.0	 0.0	 3	   0.000000	 122.272008	   0.000000; % NG
	2	 0.0	 0.0	 3	   0.000000	 112.745819	   0.000000; % PEL
	2	 0.0	 0.0	 3	   0.000000	 100.162214	   0.000000; % NG
	2	 0.0	 0.0	 3	   0.000000	 120.482600	   0.000000; % PEL
	2	 0.0	 0.0	 3	   0.000000	 113.346572	   0.000000; % PEL
	2	 0.0	 0.0	 3	   0.000000	  28.156702	   0.000000; % NG
	2	 0.0	 0.0	 3	   0.000000	  98.089855	   0.000000; % PEL
	2	 0.0	 0.0	 3	   0.000000	  32.200435	   0.000000; % NG
	2	 0.0	 0.0	 3	   0.000000	 108.577846	   0.000000; % NG
	2	 0.0	 0.0	 3	   0.000000	  36.391394	   0.000000; % COW
	2	 0.0	 0.0	 3	   0.000000	  16.770250	   0.000000; % NG
	2	 0.0	 0.0	 3	   0.000000	 115.744771	   0.000000; % PEL
	2	 0.0	 0.0	 3	   0.000000	 138.641657	   0.000000; % NG
	2	 0.0	 0.0	 3	   0.000000	 111.864791	   0.000000; % PEL
	2	 0.0	 0.0	 3	   0.000000	  20.283629	   0.000000; % PEL
	2	 0.0	 0.0	 3	   0.000000	  21.470098	   0.000000; % PEL
	2	 0.0	 0.0	 3	   0.000000	  28.839844	   0.000000; % NG
	2	 0.0	 0.0	 3	   0.000000	  24.970489	   0.000000; % PEL
	2	 0.0	 0.0	 3	   0.000000	   6.354384	   0.000000; % COW
	2	 0.0	 0.0	 3	   0.000000	 105.132303	   0.000000; % PEL
	2	 0.0	 0.0	 3	   0.000000	 123.870541	   0.000000; % NG
	2	 0.0	 0.0	 3	   0.000000	  21.699212	   0.000000; % PEL
	2	 0.0	 0.0	 3	   0.000000	 120.298901	   0.000000; % PEL
	2	 0.0	 0.0	 3	   0.000000	 100.034774	   0.000000; % PEL
	2	 0.0	 0.0	 3	   0.000000	 109.150146	   0.000000; % PEL
	2	 0.0	 0.0	 3	   0.000000	  22.968847	   0.000000; % NG
	2	 0.0	 0.0	 3	   0.000000	  23.788420	   0.000000; % PEL
	2	 0.0	 0.0	 3	   0.000000	 128.248743	   0.000000; % PEL
	2	 0.0	 0.0	 3	   0.000000	  35.875402	   0.000000; % NG
	2	 0.0	 0.0	 3	   0.000000	 116.050135	   0.000000; % PEL
	2	 0.0	 0.0	 3	   0.000000	  50.377164	   0.000000; % PEL
	2	 0.0	 0.0	 3	   0.000000	  28.598025	   0.000000; % NG
	2	 0.0	 0.0	 3	   0.000000	 110.263035	   0.000000; % NG
	2	 0.0	 0.0	 3	   0.000000	  29.939589	   0.000000; % NG
	2	 0.0	 0.0	 3	   0.000000	  20.679195	   0.000000; % PEL
	2	 0.0	 0.0	 3	   0.000000	 100.517789	   0.000000; % PEL
	2	 0.0	 0.0	 3	   0.000000	  19.334768	   0.000000; % NG
	2	 0.0	 0.0	 3	   0.000000	  19.391458	   0.000000; % NG
	2	 0.0	 0.0	 3	   0.000000	  28.561948	   0.000000; % PEL
...
];

%% branch data
%	fbus	tbus	r	x	b	rateA	rateB	rateC	ratio	angle	status	angmin	angmax
mpc.branch = [
	4639	 1	 0.005726	 0.010482	 0.0	 2186.0	 2186.0	 2186.0	 0.0	 0.0	 1	 -30.0	 30.0;
	5234	 1	 0.01284	 0.025679	 0.0	 910.0	 910.0	 910.0	 0.0	 0.0	 1	 -30.0	 30.0;
	1676	 2	 0.005799	 0.010615	 0.0075	 2441.0	 2441.0	 2441.0	 0.0	 0.0	 1	 -30.0	 30.0;
	1667	 3	 0.134039	 0.309398	 0.0035	 91.0	 91.0	 91.0	 0.0	 0.0	 1	 -30.0	 30.0;
	2296	 3	 0.049131	 0.133283	 0.0015	 215.0	 215.0	 215.0	 0.0	 0.0	 1	 -30.0	 30.0;
	695	 4	 0.025926	 0.109136	 0.0002	 281.0	 281.0	 281.0	 0.0	 0.0	 1	 -30.0	 30.0;
	3931	 4	 0.05	 0.126914	 0.0006	 226.0	 226.0	 226.0	 0.0	 0.0	 1	 -30.0	 30.0;
	5036	 4	 0.02321	 0.097407	 0.0016	 315.0	 315.0	 315.0	 0.0	 0.0	 1	 -30.0	 30.0;
	4405	 5	 0.040564	 0.113631	 0.0013	 245.0	 245.0	 245.0	 0.0	 0.0	 1	 -30.0	 30.0;
	2772	 6	 0.006047	 0.020912	 0.0222	 1398.0	 1398.0	 1398.0	 0.0	 0.0	 1	 -30.0	 30.0;
	2773	 7	 0.012472	 0.032099	 0.0061	 884.0	 884.0	 884.0	 0.0	 0.0	 1	 -30.0	 30.0;
	2459	 8	 0.002607	 0.017462	 0.0324	 540.0	 540.0	 540.0	 0.0	 0.0	 1	 -30.0	 30.0;
	470	 9	 0.053893	 0.14258	 0.0017	 194.0	 194.0	 194.0	 0.0	 0.0	 1	 -30.0	 30.0;
	11	 10	 0.000247	 0.001235	 0.0005	 24078.0	 24078.0	 24078.0	 0.0	 0.0	 1	 -30.0	 30.0;
	11	 10	 0.000247	 0.001235	 0.0002	 24078.0	 24078.0	 24078.0	 0.0	 0.0	 1	 -30.0	 30.0;
	30	 11	 0.039753	 0.100988	 0.0047	 284.0	 284.0	 284.0	 0.0	 0.0	 1	 -30.0	 30.0;
	2922	 11	 0.037654	 0.096173	 0.001	 294.0	 294.0	 294.0	 0.0	 0.0	 1	 -30.0	 30.0;
	2174	 12	 0.014613	 0.060721	 0.0008	 487.0	 487.0	 487.0	 0.0	 0.0	 1	 -30.0	 30.0;
	4009	 12	 0.034064	 0.121139	 0.0015	 242.0	 242.0	 242.0	 0.0	 0.0	 1	 -30.0	 30.0;
	4011	 12	 0.000242	 0.000442	 0.0004	 60355.0	 60355.0	 60355.0	 0.0	 0.0	 1	 -30.0	 30.0;
	115	 13	 2.1e-05	 0.000125	 0.1386	 737.0	 737.0	 737.0	 0.0	 0.0	 1	 -30.0	 30.0;
	2330	 13	 0.000145	 0.001877	 0.0635	 2487.0	 2487.0	 2487.0	 0.0	 0.0	 1	 -30.0	 30.0;
	4569	 13	 0.000319	 0.003234	 0.0838	 1841.0	 1841.0	 1841.0	 0.0	 0.0	 1	 -30.0	 30.0;
	116	 13	 2.1e-05	 0.000125	 0.1386	 737.0	 737.0	 737.0	 0.0	 0.0	 1	 -30.0	 30.0;
	1220	 14	 0.04	 0.134198	 0.0274	 217.0	 217.0	 217.0	 0.0	 0.0	 1	 -30.0	 30.0;
	2867	 14	 0.012222	 0.052346	 0.0026	 565.0	 565.0	 565.0	 0.0	 0.0	 1	 -30.0	 30.0;
	4587	 14	 0.007284	 0.045432	 0.0024	 664.0	 664.0	 664.0	 0.0	 0.0	 1	 -30.0	 30.0;
	4945	 14	 0.059963	 0.154222	 0.0236	 184.0	 184.0	 184.0	 0.0	 0.0	 1	 -30.0	 30.0;
	5220	 14	 0.018025	 0.110988	 0.0073	 270.0	 270.0	 270.0	 0.0	 0.0	 1	 -30.0	 30.0;
	2867	 14	 0.012222	 0.052593	 0.0032	 562.0	 562.0	 562.0	 0.0	 0.0	 1	 -30.0	 30.0;
	4587	 14	 0.007284	 0.044938	 0.0024	 671.0	 671.0	 671.0	 0.0	 0.0	 1	 -30.0	 30.0;
	2899	 15	 0.037541	 0.100529	 0.0011	 284.0	 284.0	 284.0	 0.0	 0.0	 1	 -30.0	 30.0;
	4116	 15	 0.090199	 0.211388	 0.0023	 133.0	 133.0	 133.0	 0.0	 0.0	 1	 -30.0	 30.0;
	4447	 15	 0.09801	 0.267574	 0.0	 107.0	 107.0	 107.0	 0.0	 0.0	 1	 -30.0	 30.0;
	249	 16	 0.071806	 0.191484	 0.0019	 149.0	 149.0	 149.0	 0.0	 0.0	 1	 -30.0	 30.0;
	337	 16	 0.119174	 0.284958	 0.0044	 99.0	 99.0	 99.0	 0.0	 0.0	 1	 -30.0	 30.0;
	5824	 17	 0.022346	 0.061111	 0.0029	 457.0	 457.0	 457.0	 0.0	 0.0	 1	 -30.0	 30.0;
	3719	 18	 0.009383	 0.019753	 0.0	 1194.0	 1194.0	 1194.0	 0.0	 0.0	 1	 -30.0	 30.0;
	5084	 19	 0.000252	 0.000504	 0.0	 52398.0	 52398.0	 52398.0	 0.0	 0.0	 1	 -30.0	 30.0;
	3719	 20	 0.001975	 0.004444	 0.0	 5369.0	 5369.0	 5369.0	 0.0	 0.0	 1	 -30.0	 30.0;
	1349	 21	 0.036296	 0.099012	 0.0045	 282.0	 282.0	 282.0	 0.0	 0.0	 1	 -30.0	 30.0;
	1592	 21	 0.032716	 0.089136	 0.0057	 313.0	 313.0	 313.0	 0.0	 0.0	 1	 -30.0	 30.0;
	1837	 22	 0.138574	 0.351474	 0.0058	 81.0	 81.0	 81.0	 0.0	 0.0	 1	 -30.0	 30.0;
	5013	 22	 0.094407	 0.210456	 0.0044	 132.0	 132.0	 132.0	 0.0	 0.0	 1	 -30.0	 30.0;
	1152	 23	 0.047115	 0.117158	 0.001	 234.0	 234.0	 234.0	 0.0	 0.0	 1	 -30.0	 30.0;
	2696	 23	 0.039557	 0.120937	 0.0132	 233.0	 233.0	 233.0	 0.0	 0.0	 1	 -30.0	 30.0;
	3418	 23	 0.022676	 0.062484	 0.0007	 445.0	 445.0	 445.0	 0.0	 0.0	 1	 -30.0	 30.0;
	144	 24	 0.064568	 0.16716	 0.0113	 180.0	 180.0	 180.0	 0.0	 0.0	 1	 -30.0	 30.0;
	1277	 24	 0.048605	 0.128481	 0.0062	 235.0	 235.0	 235.0	 0.0	 0.0	 1	 -30.0	 30.0;
	490	 25	 0.004815	 0.02963	 0.0016	 1048.0	 1048.0	 1048.0	 0.0	 0.0	 1	 -30.0	 30.0;
	2086	 25	 0.007309	 0.04463	 0.0073	 710.0	 710.0	 710.0	 0.0	 0.0	 1	 -30.0	 30.0;
	612	 26	 0.034321	 0.145802	 0.0073	 199.0	 199.0	 199.0	 0.0	 0.0	 1	 -30.0	 30.0;
	1860	 26	 0.004815	 0.009753	 0.0005	 2731.0	 2731.0	 2731.0	 0.0	 0.0	 1	 -30.0	 30.0;
	2595	 26	 0.049012	 0.133704	 0.0063	 209.0	 209.0	 209.0	 0.0	 0.0	 1	 -30.0	 30.0;
	2915	 26	 0.04642	 0.126543	 0.0058	 221.0	 221.0	 221.0	 0.0	 0.0	 1	 -30.0	 30.0;
	3332	 26	 0.046296	 0.125926	 0.006	 222.0	 222.0	 222.0	 0.0	 0.0	 1	 -30.0	 30.0;
	4624	 26	 0.053704	 0.136753	 0.0065	 203.0	 203.0	 203.0	 0.0	 0.0	 1	 -30.0	 30.0;
	2915	 26	 0.03358	 0.120988	 0.0062	 237.0	 237.0	 237.0	 0.0	 0.0	 1	 -30.0	 30.0;
	536	 27	 0.006163	 0.041067	 0.0759	 446.0	 446.0	 446.0	 0.0	 0.0	 1	 -30.0	 30.0;
	2343	 27	 0.000652	 0.004369	 0.0081	 558.0	 558.0	 558.0	 0.0	 0.0	 1	 -30.0	 30.0;
	2677	 28	 0.050945	 0.131922	 0.0015	 216.0	 216.0	 216.0	 0.0	 0.0	 1	 -30.0	 30.0;
	3884	 28	 0.058781	 0.149005	 0.0017	 190.0	 190.0	 190.0	 0.0	 0.0	 1	 -30.0	 30.0;
	2880	 29	 0.067019	 0.137566	 0.0037	 193.0	 193.0	 193.0	 0.0	 0.0	 1	 -30.0	 30.0;
	3314	 29	 0.032754	 0.088939	 0.0039	 312.0	 312.0	 312.0	 0.0	 0.0	 1	 -30.0	 30.0;
	3314	 29	 0.030184	 0.080096	 0.0053	 345.0	 345.0	 345.0	 0.0	 0.0	 1	 -30.0	 30.0;
	144	 30	 0.066049	 0.187778	 0.0099	 161.0	 161.0	 161.0	 0.0	 0.0	 1	 -30.0	 30.0;
	1548	 30	 0.065062	 0.133704	 0.0062	 212.0	 212.0	 212.0	 0.0	 0.0	 1	 -30.0	 30.0;
	4831	 30	 0.041728	 0.106049	 0.005	 281.0	 281.0	 281.0	 0.0	 0.0	 1	 -30.0	 30.0;
	150	 31	 0.009574	 0.03875	 0.0114	 740.0	 740.0	 740.0	 0.0	 0.0	 1	 -30.0	 30.0;
	3155	 31	 0.000171	 0.000313	 0.0002	 82782.0	 82782.0	 82782.0	 0.0	 0.0	 1	 -30.0	 30.0;
	3684	 31	 0.034266	 0.09423	 0.001	 295.0	 295.0	 295.0	 0.0	 0.0	 1	 -30.0	 30.0;
	4733	 31	 0.006803	 0.028219	 0.0	 1018.0	 1018.0	 1018.0	 0.0	 0.0	 1	 -30.0	 30.0;
	150	 31	 0.008566	 0.037541	 0.0121	 767.0	 767.0	 767.0	 0.0	 0.0	 1	 -30.0	 30.0;
	3721	 32	 0.009733	 0.034089	 0.0185	 902.0	 902.0	 902.0	 0.0	 0.0	 1	 -30.0	 30.0;
	366	 34	 0.000277	 0.002015	 0.003	 288.0	 288.0	 288.0	 0.0	 0.0	 1	 -30.0	 30.0;
	1012	 33	 0.00881	 0.033995	 0.0607	 289.0	 289.0	 289.0	 0.0	 0.0	 1	 -30.0	 30.0;
	1153	 33	 0.004642	 0.019832	 0.0354	 255.0	 255.0	 255.0	 0.0	 0.0	 1	 -30.0	 30.0;
	2573	 34	 0.008861	 0.03506	 0.0623	 288.0	 288.0	 288.0	 0.0	 0.0	 1	 -30.0	 30.0;
	2697	 34	 0.006993	 0.032869	 0.0557	 255.0	 255.0	 255.0	 0.0	 0.0	 1	 -30.0	 30.0;
	4738	 33	 0.002173	 0.008731	 0.0152	 3441.0	 3441.0	 3441.0	 0.0	 0.0	 1	 -30.0	 30.0;
	4848	 34	 0.00077	 0.003121	 0.0051	 9629.0	 9629.0	 9629.0	 0.0	 0.0	 1	 -30.0	 30.0;
	5661	 33	 0.004109	 0.016138	 0.0284	 288.0	 288.0	 288.0	 0.0	 0.0	 1	 -30.0	 30.0;
	368	 35	 8.3e-05	 0.000907	 0.0202	 1034.0	 1034.0	 1034.0	 0.0	 0.0	 1	 -30.0	 30.0;
	1104	 35	 0.000552	 0.006726	 0.0939	 1786.0	 1786.0	 1786.0	 0.0	 0.0	 1	 -30.0	 30.0;
	2143	 35	 0.000512	 0.008012	 0.2455	 2462.0	 2462.0	 2462.0	 0.0	 0.0	 1	 -30.0	 30.0;
	3128	 35	 0.001107	 0.00918	 0.1906	 1644.0	 1644.0	 1644.0	 0.0	 0.0	 1	 -30.0	 30.0;
	367	 36	 6.2e-05	 0.000741	 0.0173	 1095.0	 1095.0	 1095.0	 0.0	 0.0	 1	 -30.0	 30.0;
	2143	 35	 0.000512	 0.008019	 0.2455	 2462.0	 2462.0	 2462.0	 0.0	 0.0	 1	 -30.0	 30.0;
	2143	 36	 0.001153	 0.013123	 0.1841	 1433.0	 1433.0	 1433.0	 0.0	 0.0	 1	 -30.0	 30.0;
	5219	 37	 0.055933	 0.120685	 0.0013	 229.0	 229.0	 229.0	 0.0	 0.0	 1	 -30.0	 30.0;
	5505	 37	 0.039053	 0.084404	 0.001	 328.0	 328.0	 328.0	 0.0	 0.0	 1	 -30.0	 30.0;
	725	 38	 0.00252	 0.006551	 0.0001	 4462.0	 4462.0	 4462.0	 0.0	 0.0	 1	 -30.0	 30.0;
	1224	 39	 0.009877	 0.042222	 0.0021	 697.0	 697.0	 697.0	 0.0	 0.0	 1	 -30.0	 30.0;
	5799	 39	 0.024815	 0.063086	 0.0029	 446.0	 446.0	 446.0	 0.0	 0.0	 1	 -30.0	 30.0;
	1224	 39	 0.009877	 0.042222	 0.0021	 697.0	 697.0	 697.0	 0.0	 0.0	 1	 -30.0	 30.0;
	2244	 40	 0.056173	 0.142593	 0.0066	 198.0	 198.0	 198.0	 0.0	 0.0	 1	 -30.0	 30.0;
	4587	 40	 0.034444	 0.109012	 0.0076	 267.0	 267.0	 267.0	 0.0	 0.0	 1	 -30.0	 30.0;
	430	 41	 0.000158	 0.000672	 0.0719	 331.0	 331.0	 331.0	 0.0	 0.0	 1	 -30.0	 30.0;
	3945	 41	 4.5e-05	 8.9e-05	 0.002	 268.0	 268.0	 268.0	 0.0	 0.0	 1	 -30.0	 30.0;
	1479	 42	 0.01096	 0.020063	 0.009	 1454.0	 1454.0	 1454.0	 0.0	 0.0	 1	 -30.0	 30.0;
	2758	 42	 0.002268	 0.008818	 0.0099	 3651.0	 3651.0	 3651.0	 0.0	 0.0	 1	 -30.0	 30.0;
	2717	 43	 0.001481	 0.006296	 0.0039	 4689.0	 4689.0	 4689.0	 0.0	 0.0	 1	 -30.0	 30.0;
	3481	 44	 0.050617	 0.137012	 0.009	 203.0	 203.0	 203.0	 0.0	 0.0	 1	 -30.0	 30.0;
	4314	 44	 0.074326	 0.194507	 0.0021	 142.0	 142.0	 142.0	 0.0	 0.0	 1	 -30.0	 30.0;
	5087	 45	 0.000247	 0.000741	 0.0	 38027.0	 38027.0	 38027.0	 0.0	 0.0	 1	 -30.0	 30.0;
	1080	 46	 0.049131	 0.134039	 0.001	 207.0	 207.0	 207.0	 0.0	 0.0	 1	 -30.0	 30.0;
	2187	 46	 0.033258	 0.090955	 0.001	 305.0	 305.0	 305.0	 0.0	 0.0	 1	 -30.0	 30.0;
	3298	 46	 0.067437	 0.123442	 0.001	 210.0	 210.0	 210.0	 0.0	 0.0	 1	 -30.0	 30.0;
	1080	 47	 0.037289	 0.118166	 0.001	 239.0	 239.0	 239.0	 0.0	 0.0	 1	 -30.0	 30.0;
	5353	 48	 0.021358	 0.057037	 0.0005	 573.0	 573.0	 573.0	 0.0	 0.0	 1	 -30.0	 30.0;
	1218	 49	 0.071303	 0.180902	 0.0021	 152.0	 152.0	 152.0	 0.0	 0.0	 1	 -30.0	 30.0;
	2338	 49	 0.071554	 0.18191	 0.0021	 152.0	 152.0	 152.0	 0.0	 0.0	 1	 -30.0	 30.0;
	470	 50	 0.028193	 0.104535	 0.0013	 278.0	 278.0	 278.0	 0.0	 0.0	 1	 -30.0	 30.0;
	1670	 50	 0.055404	 0.171429	 0.01	 167.0	 167.0	 167.0	 0.0	 0.0	 1	 -30.0	 30.0;
	3546	 50	 0.010834	 0.071554	 0.001	 416.0	 416.0	 416.0	 0.0	 0.0	 1	 -30.0	 30.0;
	4621	 50	 0.013857	 0.030234	 0.0003	 904.0	 904.0	 904.0	 0.0	 0.0	 1	 -30.0	 30.0;
	3546	 50	 0.011414	 0.070648	 0.0009	 421.0	 421.0	 421.0	 0.0	 0.0	 1	 -30.0	 30.0;
	4621	 50	 0.013757	 0.030108	 0.0003	 909.0	 909.0	 909.0	 0.0	 0.0	 1	 -30.0	 30.0;
	1191	 51	 0.00478	 0.028622	 0.0547	 455.0	 455.0	 455.0	 0.0	 0.0	 1	 -30.0	 30.0;
	1192	 51	 0.00478	 0.028583	 0.0547	 455.0	 455.0	 455.0	 0.0	 0.0	 1	 -30.0	 30.0;
	166	 52	 0.01284	 0.032716	 0.0015	 846.0	 846.0	 846.0	 0.0	 0.0	 1	 -30.0	 30.0;
	5479	 52	 0.014198	 0.036049	 0.0016	 767.0	 767.0	 767.0	 0.0	 0.0	 1	 -30.0	 30.0;
	3342	 53	 0.005291	 0.021668	 0.0003	 1285.0	 1285.0	 1285.0	 0.0	 0.0	 1	 -30.0	 30.0;
	2762	 54	 0.01358	 0.047654	 0.0023	 600.0	 600.0	 600.0	 0.0	 0.0	 1	 -30.0	 30.0;
	373	 55	 0.000257	 0.000514	 0.0294	 53975.0	 53975.0	 53975.0	 0.0	 0.0	 1	 -30.0	 30.0;
	2686	 56	 0.000257	 0.002153	 0.2147	 452.0	 452.0	 452.0	 0.0	 0.0	 1	 -30.0	 30.0;
	3420	 56	 0.000277	 0.000869	 0.0931	 481.0	 481.0	 481.0	 0.0	 0.0	 1	 -30.0	 30.0;
	5088	 57	 0.000756	 0.00252	 0.0	 11560.0	 11560.0	 11560.0	 0.0	 0.0	 1	 -30.0	 30.0;
	3383	 58	 0.000237	 0.00083	 0.1863	 268.0	 268.0	 268.0	 0.0	 0.0	 1	 -30.0	 30.0;
	3558	 58	 0.000178	 0.000612	 0.1377	 268.0	 268.0	 268.0	 0.0	 0.0	 1	 -30.0	 30.0;
	142	 59	 0.030486	 0.076342	 0.002	 370.0	 370.0	 370.0	 0.0	 0.0	 1	 -30.0	 30.0;
	1646	 59	 0.011086	 0.024691	 0.0015	 1124.0	 1124.0	 1124.0	 0.0	 0.0	 1	 -30.0	 30.0;
	2469	 60	 0.044344	 0.170572	 0.0021	 173.0	 173.0	 173.0	 0.0	 0.0	 1	 -30.0	 30.0;
	3518	 60	 0.036709	 0.151776	 0.0017	 195.0	 195.0	 195.0	 0.0	 0.0	 1	 -30.0	 30.0;
	2221	 61	 0.017788	 0.048551	 0.0006	 589.0	 589.0	 589.0	 0.0	 0.0	 1	 -30.0	 30.0;
	2627	 61	 0.057521	 0.145251	 0.0017	 195.0	 195.0	 195.0	 0.0	 0.0	 1	 -30.0	 30.0;
	2041	 62	 0.014109	 0.057949	 0.0029	 510.0	 510.0	 510.0	 0.0	 0.0	 1	 -30.0	 30.0;
	2943	 62	 0.007055	 0.02973	 0.0014	 996.0	 996.0	 996.0	 0.0	 0.0	 1	 -30.0	 30.0;
	371	 63	 0.024263	 0.065911	 0.0007	 434.0	 434.0	 434.0	 0.0	 0.0	 1	 -30.0	 30.0;
	3074	 63	 0.020912	 0.059209	 0.0016	 485.0	 485.0	 485.0	 0.0	 0.0	 1	 -30.0	 30.0;
	145	 64	 0.002568	 0.011753	 0.0203	 424.0	 424.0	 424.0	 0.0	 0.0	 1	 -30.0	 30.0;
	5098	 64	 0.002568	 0.011615	 0.0228	 290.0	 290.0	 290.0	 0.0	 0.0	 1	 -30.0	 30.0;
	4599	 65	 0.006299	 0.033585	 0.0599	 891.0	 891.0	 891.0	 0.0	 0.0	 1	 -30.0	 30.0;
	4599	 65	 0.006299	 0.033661	 0.06	 889.0	 889.0	 889.0	 0.0	 0.0	 1	 -30.0	 30.0;
	1541	 66	 0.102293	 0.226757	 0.0025	 119.0	 119.0	 119.0	 0.0	 0.0	 1	 -30.0	 30.0;
	2285	 66	 0.177551	 0.405291	 0.0046	 67.0	 67.0	 67.0	 0.0	 0.0	 1	 -30.0	 30.0;
	3242	 66	 0.088264	 0.161566	 0.0017	 161.0	 161.0	 161.0	 0.0	 0.0	 1	 -30.0	 30.0;
	3023	 67	 0.007307	 0.014613	 0.0002	 1862.0	 1862.0	 1862.0	 0.0	 0.0	 1	 -30.0	 30.0;
	2876	 68	 0.067775	 0.139834	 0.001	 191.0	 191.0	 191.0	 0.0	 0.0	 1	 -30.0	 30.0;
	4529	 68	 0.047367	 0.16125	 0.0021	 176.0	 176.0	 176.0	 0.0	 0.0	 1	 -30.0	 30.0;
	5141	 68	 0.004031	 0.016629	 0.001	 1726.0	 1726.0	 1726.0	 0.0	 0.0	 1	 -30.0	 30.0;
	4602	 69	 0.073066	 0.205089	 0.0022	 136.0	 136.0	 136.0	 0.0	 0.0	 1	 -30.0	 30.0;
	5089	 70	 4.8e-05	 8.8e-05	 0.0001	 303410.0	 303410.0	 303410.0	 0.0	 0.0	 1	 -30.0	 30.0;
	2158	 71	 0.000252	 0.00252	 0.0008	 11313.0	 11313.0	 11313.0	 0.0	 0.0	 1	 -30.0	 30.0;
	3138	 71	 0.030738	 0.088687	 0.0169	 306.0	 306.0	 306.0	 0.0	 0.0	 1	 -30.0	 30.0;
	5090	 71	 0.006551	 0.016377	 0.0171	 1625.0	 1625.0	 1625.0	 0.0	 0.0	 1	 -30.0	 30.0;
	3138	 71	 0.025195	 0.07483	 0.0204	 363.0	 363.0	 363.0	 0.0	 0.0	 1	 -30.0	 30.0;
	3738	 72	 9.9e-05	 0.00077	 0.078	 379.0	 379.0	 379.0	 0.0	 0.0	 1	 -30.0	 30.0;
	3738	 73	 9.9e-05	 0.00077	 0.077	 379.0	 379.0	 379.0	 0.0	 0.0	 1	 -30.0	 30.0;
	5098	 74	 0.000514	 0.003437	 0.0061	 290.0	 290.0	 290.0	 0.0	 0.0	 1	 -30.0	 30.0;
	5118	 74	 0.005476	 0.036879	 0.1255	 522.0	 522.0	 522.0	 0.0	 0.0	 1	 -30.0	 30.0;
	145	 74	 0.000514	 0.003457	 0.0061	 418.0	 418.0	 418.0	 0.0	 0.0	 1	 -30.0	 30.0;
	4954	 75	 0.017531	 0.046914	 0.0023	 594.0	 594.0	 594.0	 0.0	 0.0	 1	 -30.0	 30.0;
	2077	 75	 0.005309	 0.014321	 0.0006	 1945.0	 1945.0	 1945.0	 0.0	 0.0	 1	 -30.0	 30.0;
	3075	 76	 0.003477	 0.01118	 0.0187	 304.0	 304.0	 304.0	 0.0	 0.0	 1	 -30.0	 30.0;
	3824	 76	 0.000612	 0.003121	 0.0152	 270.0	 270.0	 270.0	 0.0	 0.0	 1	 -30.0	 30.0;
	2337	 77	 0.013857	 0.035525	 0.0004	 775.0	 775.0	 775.0	 0.0	 0.0	 1	 -30.0	 30.0;
	240	 78	 0.002771	 0.008314	 0.0083	 3471.0	 3471.0	 3471.0	 0.0	 0.0	 1	 -30.0	 30.0;
	4554	 78	 0.000151	 0.000302	 0.0	 90076.0	 90076.0	 90076.0	 0.0	 0.0	 1	 -30.0	 30.0;
	630	 79	 0.010758	 0.02187	 0.0071	 1176.0	 1176.0	 1176.0	 0.0	 0.0	 1	 -30.0	 30.0;
	1865	 79	 0.003779	 0.014613	 0.0198	 1899.0	 1899.0	 1899.0	 0.0	 0.0	 1	 -30.0	 30.0;
	2403	 79	 0.008314	 0.017057	 0.024	 1510.0	 1510.0	 1510.0	 0.0	 0.0	 1	 -30.0	 30.0;
	4069	 79	 0.000252	 0.001764	 0.0043	 16079.0	 16079.0	 16079.0	 0.0	 0.0	 1	 -30.0	 30.0;
	630	 79	 0.010758	 0.02187	 0.0071	 1176.0	 1176.0	 1176.0	 0.0	 0.0	 1	 -30.0	 30.0;
	4068	 79	 0.000302	 0.001562	 0.0037	 18009.0	 18009.0	 18009.0	 0.0	 0.0	 1	 -30.0	 30.0;
	4070	 81	 2.4e-05	 0.000144	 0.0213	 701.0	 701.0	 701.0	 0.0	 0.0	 1	 -30.0	 30.0;
	4070	 80	 7.1e-05	 0.000162	 0.0162	 251.0	 251.0	 251.0	 0.0	 0.0	 1	 -30.0	 30.0;
	675	 82	 0.068027	 0.173091	 0.002	 159.0	 159.0	 159.0	 0.0	 0.0	 1	 -30.0	 30.0;
	798	 82	 0.027211	 0.068783	 0.001	 400.0	 400.0	 400.0	 0.0	 0.0	 1	 -30.0	 30.0;
	2066	 82	 0.03099	 0.202822	 0.002	 147.0	 147.0	 147.0	 0.0	 0.0	 1	 -30.0	 30.0;
	3478	 83	 0.000257	 0.001165	 0.002	 405.0	 405.0	 405.0	 0.0	 0.0	 1	 -30.0	 30.0;
	2122	 84	 0.045603	 0.11741	 0.001	 235.0	 235.0	 235.0	 0.0	 0.0	 1	 -30.0	 30.0;
	3794	 84	 0.008566	 0.024691	 0.0	 1130.0	 1130.0	 1130.0	 0.0	 0.0	 1	 -30.0	 30.0;
	5093	 85	 0.047317	 0.131595	 0.0015	 212.0	 212.0	 212.0	 0.0	 0.0	 1	 -30.0	 30.0;
	2802	 86	 0.040494	 0.128889	 0.0064	 220.0	 220.0	 220.0	 0.0	 0.0	 1	 -30.0	 30.0;
	3504	 86	 0.037778	 0.097037	 0.0045	 286.0	 286.0	 286.0	 0.0	 0.0	 1	 -30.0	 30.0;
	3763	 87	 0.032071	 0.058705	 0.0006	 455.0	 455.0	 455.0	 0.0	 0.0	 1	 -30.0	 30.0;
	4338	 87	 0.062887	 0.204157	 0.002	 143.0	 143.0	 143.0	 0.0	 0.0	 1	 -30.0	 30.0;
	3763	 87	 0.032026	 0.058624	 0.0006	 456.0	 456.0	 456.0	 0.0	 0.0	 1	 -30.0	 30.0;
	1611	 88	 0.075838	 0.224742	 0.0027	 125.0	 125.0	 125.0	 0.0	 0.0	 1	 -30.0	 30.0;
	1700	 88	 0.028471	 0.089695	 0.001	 314.0	 314.0	 314.0	 0.0	 0.0	 1	 -30.0	 30.0;
	3635	 88	 0.080373	 0.255732	 0.003	 111.0	 111.0	 111.0	 0.0	 0.0	 1	 -30.0	 30.0;
	5549	 88	 0.000252	 0.000504	 0.0	 52398.0	 52398.0	 52398.0	 0.0	 0.0	 1	 -30.0	 30.0;
	2489	 89	 0.033531	 0.087235	 0.0166	 325.0	 325.0	 325.0	 0.0	 0.0	 1	 -30.0	 30.0;
...